
---------- Begin Simulation Statistics ----------
simSeconds                                  35.391923                       # Number of seconds simulated (Second)
simTicks                                 35391923211500                       # Number of ticks simulated (Tick)
finalTick                                35391923211500                       # Number of ticks from beginning of simulation (restored from checkpoints and never reset) (Tick)
simFreq                                  1000000000000                       # The number of ticks per simulated second ((Tick/Second))
hostSeconds                                   7782.76                       # Real time elapsed on the host (Second)
hostTickRate                               4547478728                       # The number of ticks simulated per host second (ticks/s) ((Tick/Second))
hostMemory                                    2270944                       # Number of bytes of host memory used (Byte)
simInsts                                    500000000                       # Number of instructions simulated (Count)
simOps                                      619058323                       # Number of ops (including micro ops) simulated (Count)
hostInstRate                                    64245                       # Simulator instruction rate (inst/s) ((Count/Second))
hostOpRate                                      79542                       # Simulator op (including micro ops) rate (op/s) ((Count/Second))
system.clk_domain.clock                           500                       # Clock period in ticks (Tick)
system.clk_domain.voltage_domain.voltage            1                       # Voltage in Volts (Volt)
system.cpu.numCycles                      70783846423                       # Number of cpu cycles simulated (Cycle)
system.cpu.cpi                             141.567679                       # CPI: cycles per instruction (core level) ((Cycle/Count))
system.cpu.ipc                               0.007064                       # IPC: instructions per cycle (core level) ((Count/Cycle))
system.cpu.numWorkItemsStarted                      0                       # Number of work items this cpu started (Count)
system.cpu.numWorkItemsCompleted                    0                       # Number of work items this cpu completed (Count)
system.cpu.commitStats0.numInsts            500000050                       # Number of instructions committed (thread level) (Count)
system.cpu.commitStats0.numOps              619058422                       # Number of ops (including micro ops) committed (thread level) (Count)
system.cpu.commitStats0.numInstsNotNOP              0                       # Number of instructions committed excluding NOPs or prefetches (Count)
system.cpu.commitStats0.numOpsNotNOP                0                       # Number of Ops (including micro ops) Simulated (Count)
system.cpu.commitStats0.cpi                141.567679                       # CPI: cycles per instruction (thread level) ((Cycle/Count))
system.cpu.commitStats0.ipc                  0.007064                       # IPC: instructions per cycle (thread level) ((Count/Cycle))
system.cpu.commitStats0.numMemRefs                  0                       # Number of memory references committed (Count)
system.cpu.commitStats0.numFpInsts                  0                       # Number of float instructions (Count)
system.cpu.commitStats0.numIntInsts         563735598                       # Number of integer instructions (Count)
system.cpu.commitStats0.numLoadInsts        213741097                       # Number of load instructions (Count)
system.cpu.commitStats0.numStoreInsts       119058676                       # Number of store instructions (Count)
system.cpu.commitStats0.numVecInsts                 0                       # Number of vector instructions (Count)
system.cpu.commitStats0.committedInstType::No_OpClass            0      0.00%      0.00% # Class of committed instruction. (Count)
system.cpu.commitStats0.committedInstType::IntAlu    230753725     37.27%     37.27% # Class of committed instruction. (Count)
system.cpu.commitStats0.committedInstType::IntMult     33701423      5.44%     42.72% # Class of committed instruction. (Count)
system.cpu.commitStats0.committedInstType::IntDiv            0      0.00%     42.72% # Class of committed instruction. (Count)
system.cpu.commitStats0.committedInstType::FloatAdd            0      0.00%     42.72% # Class of committed instruction. (Count)
system.cpu.commitStats0.committedInstType::FloatCmp            0      0.00%     42.72% # Class of committed instruction. (Count)
system.cpu.commitStats0.committedInstType::FloatCvt            0      0.00%     42.72% # Class of committed instruction. (Count)
system.cpu.commitStats0.committedInstType::FloatMult            0      0.00%     42.72% # Class of committed instruction. (Count)
system.cpu.commitStats0.committedInstType::FloatMultAcc            0      0.00%     42.72% # Class of committed instruction. (Count)
system.cpu.commitStats0.committedInstType::FloatDiv            0      0.00%     42.72% # Class of committed instruction. (Count)
system.cpu.commitStats0.committedInstType::FloatMisc            0      0.00%     42.72% # Class of committed instruction. (Count)
system.cpu.commitStats0.committedInstType::FloatSqrt            0      0.00%     42.72% # Class of committed instruction. (Count)
system.cpu.commitStats0.committedInstType::SimdAdd            0      0.00%     42.72% # Class of committed instruction. (Count)
system.cpu.commitStats0.committedInstType::SimdAddAcc            0      0.00%     42.72% # Class of committed instruction. (Count)
system.cpu.commitStats0.committedInstType::SimdAlu            0      0.00%     42.72% # Class of committed instruction. (Count)
system.cpu.commitStats0.committedInstType::SimdCmp            0      0.00%     42.72% # Class of committed instruction. (Count)
system.cpu.commitStats0.committedInstType::SimdCvt            0      0.00%     42.72% # Class of committed instruction. (Count)
system.cpu.commitStats0.committedInstType::SimdMisc            0      0.00%     42.72% # Class of committed instruction. (Count)
system.cpu.commitStats0.committedInstType::SimdMult            0      0.00%     42.72% # Class of committed instruction. (Count)
system.cpu.commitStats0.committedInstType::SimdMultAcc            0      0.00%     42.72% # Class of committed instruction. (Count)
system.cpu.commitStats0.committedInstType::SimdMatMultAcc            0      0.00%     42.72% # Class of committed instruction. (Count)
system.cpu.commitStats0.committedInstType::SimdShift            0      0.00%     42.72% # Class of committed instruction. (Count)
system.cpu.commitStats0.committedInstType::SimdShiftAcc            0      0.00%     42.72% # Class of committed instruction. (Count)
system.cpu.commitStats0.committedInstType::SimdDiv            0      0.00%     42.72% # Class of committed instruction. (Count)
system.cpu.commitStats0.committedInstType::SimdSqrt            0      0.00%     42.72% # Class of committed instruction. (Count)
system.cpu.commitStats0.committedInstType::SimdFloatAdd            0      0.00%     42.72% # Class of committed instruction. (Count)
system.cpu.commitStats0.committedInstType::SimdFloatAlu            0      0.00%     42.72% # Class of committed instruction. (Count)
system.cpu.commitStats0.committedInstType::SimdFloatCmp     10901742      1.76%     44.48% # Class of committed instruction. (Count)
system.cpu.commitStats0.committedInstType::SimdFloatCvt            0      0.00%     44.48% # Class of committed instruction. (Count)
system.cpu.commitStats0.committedInstType::SimdFloatDiv            0      0.00%     44.48% # Class of committed instruction. (Count)
system.cpu.commitStats0.committedInstType::SimdFloatMisc     10901759      1.76%     46.24% # Class of committed instruction. (Count)
system.cpu.commitStats0.committedInstType::SimdFloatMult            0      0.00%     46.24% # Class of committed instruction. (Count)
system.cpu.commitStats0.committedInstType::SimdFloatMultAcc            0      0.00%     46.24% # Class of committed instruction. (Count)
system.cpu.commitStats0.committedInstType::SimdFloatMatMultAcc            0      0.00%     46.24% # Class of committed instruction. (Count)
system.cpu.commitStats0.committedInstType::SimdFloatSqrt            0      0.00%     46.24% # Class of committed instruction. (Count)
system.cpu.commitStats0.committedInstType::SimdReduceAdd            0      0.00%     46.24% # Class of committed instruction. (Count)
system.cpu.commitStats0.committedInstType::SimdReduceAlu            0      0.00%     46.24% # Class of committed instruction. (Count)
system.cpu.commitStats0.committedInstType::SimdReduceCmp            0      0.00%     46.24% # Class of committed instruction. (Count)
system.cpu.commitStats0.committedInstType::SimdFloatReduceAdd            0      0.00%     46.24% # Class of committed instruction. (Count)
system.cpu.commitStats0.committedInstType::SimdFloatReduceCmp            0      0.00%     46.24% # Class of committed instruction. (Count)
system.cpu.commitStats0.committedInstType::SimdAes            0      0.00%     46.24% # Class of committed instruction. (Count)
system.cpu.commitStats0.committedInstType::SimdAesMix            0      0.00%     46.24% # Class of committed instruction. (Count)
system.cpu.commitStats0.committedInstType::SimdSha1Hash            0      0.00%     46.24% # Class of committed instruction. (Count)
system.cpu.commitStats0.committedInstType::SimdSha1Hash2            0      0.00%     46.24% # Class of committed instruction. (Count)
system.cpu.commitStats0.committedInstType::SimdSha256Hash            0      0.00%     46.24% # Class of committed instruction. (Count)
system.cpu.commitStats0.committedInstType::SimdSha256Hash2            0      0.00%     46.24% # Class of committed instruction. (Count)
system.cpu.commitStats0.committedInstType::SimdShaSigma2            0      0.00%     46.24% # Class of committed instruction. (Count)
system.cpu.commitStats0.committedInstType::SimdShaSigma3            0      0.00%     46.24% # Class of committed instruction. (Count)
system.cpu.commitStats0.committedInstType::SimdPredAlu            0      0.00%     46.24% # Class of committed instruction. (Count)
system.cpu.commitStats0.committedInstType::Matrix            0      0.00%     46.24% # Class of committed instruction. (Count)
system.cpu.commitStats0.committedInstType::MatrixMov            0      0.00%     46.24% # Class of committed instruction. (Count)
system.cpu.commitStats0.committedInstType::MatrixOP            0      0.00%     46.24% # Class of committed instruction. (Count)
system.cpu.commitStats0.committedInstType::MemRead    213741097     34.53%     80.77% # Class of committed instruction. (Count)
system.cpu.commitStats0.committedInstType::MemWrite    119058676     19.23%    100.00% # Class of committed instruction. (Count)
system.cpu.commitStats0.committedInstType::FloatMemRead            0      0.00%    100.00% # Class of committed instruction. (Count)
system.cpu.commitStats0.committedInstType::FloatMemWrite            0      0.00%    100.00% # Class of committed instruction. (Count)
system.cpu.commitStats0.committedInstType::IprAccess            0      0.00%    100.00% # Class of committed instruction. (Count)
system.cpu.commitStats0.committedInstType::InstPrefetch            0      0.00%    100.00% # Class of committed instruction. (Count)
system.cpu.commitStats0.committedInstType::SimdUnitStrideLoad            0      0.00%    100.00% # Class of committed instruction. (Count)
system.cpu.commitStats0.committedInstType::SimdUnitStrideStore            0      0.00%    100.00% # Class of committed instruction. (Count)
system.cpu.commitStats0.committedInstType::SimdUnitStrideMaskLoad            0      0.00%    100.00% # Class of committed instruction. (Count)
system.cpu.commitStats0.committedInstType::SimdUnitStrideMaskStore            0      0.00%    100.00% # Class of committed instruction. (Count)
system.cpu.commitStats0.committedInstType::SimdStridedLoad            0      0.00%    100.00% # Class of committed instruction. (Count)
system.cpu.commitStats0.committedInstType::SimdStridedStore            0      0.00%    100.00% # Class of committed instruction. (Count)
system.cpu.commitStats0.committedInstType::SimdIndexedLoad            0      0.00%    100.00% # Class of committed instruction. (Count)
system.cpu.commitStats0.committedInstType::SimdIndexedStore            0      0.00%    100.00% # Class of committed instruction. (Count)
system.cpu.commitStats0.committedInstType::SimdWholeRegisterLoad            0      0.00%    100.00% # Class of committed instruction. (Count)
system.cpu.commitStats0.committedInstType::SimdWholeRegisterStore            0      0.00%    100.00% # Class of committed instruction. (Count)
system.cpu.commitStats0.committedInstType::SimdUnitStrideFaultOnlyFirstLoad            0      0.00%    100.00% # Class of committed instruction. (Count)
system.cpu.commitStats0.committedInstType::SimdUnitStrideSegmentedLoad            0      0.00%    100.00% # Class of committed instruction. (Count)
system.cpu.commitStats0.committedInstType::SimdUnitStrideSegmentedStore            0      0.00%    100.00% # Class of committed instruction. (Count)
system.cpu.commitStats0.committedInstType::SimdExt            0      0.00%    100.00% # Class of committed instruction. (Count)
system.cpu.commitStats0.committedInstType::SimdFloatExt            0      0.00%    100.00% # Class of committed instruction. (Count)
system.cpu.commitStats0.committedInstType::SimdConfig            0      0.00%    100.00% # Class of committed instruction. (Count)
system.cpu.commitStats0.committedInstType::total    619058422                       # Class of committed instruction. (Count)
system.cpu.commitStats0.committedControl::IsControl     33519624                       # Class of control type instructions committed (Count)
system.cpu.commitStats0.committedControl::IsDirectControl     33519439                       # Class of control type instructions committed (Count)
system.cpu.commitStats0.committedControl::IsIndirectControl          185                       # Class of control type instructions committed (Count)
system.cpu.commitStats0.committedControl::IsCondControl     27910879                       # Class of control type instructions committed (Count)
system.cpu.commitStats0.committedControl::IsUncondControl      5608745                       # Class of control type instructions committed (Count)
system.cpu.commitStats0.committedControl::IsCall          114                       # Class of control type instructions committed (Count)
system.cpu.commitStats0.committedControl::IsReturn          117                       # Class of control type instructions committed (Count)
system.cpu.exec_context.thread_0.numMatAluAccesses            0                       # Number of matrix alu accesses (Count)
system.cpu.exec_context.thread_0.numCallsReturns          231                       # Number of times a function call or return occured (Count)
system.cpu.exec_context.thread_0.numMatInsts            0                       # Number of matrix instructions (Count)
system.cpu.exec_context.thread_0.numIdleCycles            0                       # Number of idle cycles (Cycle)
system.cpu.exec_context.thread_0.numBusyCycles  70783846423                       # Number of busy cycles (Cycle)
system.cpu.exec_context.thread_0.notIdleFraction            1                       # Percentage of non-idle cycles (Ratio)
system.cpu.exec_context.thread_0.idleFraction            0                       # Percentage of idle cycles (Ratio)
system.cpu.executeStats0.numInsts                   0                       # Number of executed instructions (Count)
system.cpu.executeStats0.numNop                     0                       # Number of nop insts executed (Count)
system.cpu.executeStats0.numBranches                0                       # Number of branches executed (Count)
system.cpu.executeStats0.numLoadInsts               0                       # Number of load instructions executed (Count)
system.cpu.executeStats0.numStoreInsts      332799773                       # Number of stores executed (Count)
system.cpu.executeStats0.instRate                   0                       # Inst execution rate ((Count/Cycle))
system.cpu.executeStats0.numFpRegWrites             0                       # Number of times the floating registers were written (Count)
system.cpu.executeStats0.numIntAluAccesses    563735598                       # Number of integer alu accesses (Count)
system.cpu.executeStats0.numIntRegReads     755989192                       # Number of times the integer registers were read (Count)
system.cpu.executeStats0.numIntRegWrites    456888778                       # Number of times the integer registers were written (Count)
system.cpu.executeStats0.numMemRefs         332799773                       # Number of memory refs (Count)
system.cpu.executeStats0.numMiscRegReads    518129500                       # Number of times the Misc registers were read (Count)
system.cpu.executeStats0.numMiscRegWrites     10901750                       # Number of times the Misc registers were written (Count)
system.cpu.executeStats0.numVecAluAccesses            0                       # Number of vector alu accesses (Count)
system.cpu.executeStats0.numVecRegReads      43607012                       # Number of times the vector registers were read (Count)
system.cpu.executeStats0.numVecRegWrites     43606983                       # Number of times the vector registers were written (Count)
system.cpu.executeStats0.numDiscardedOps            0                       # Number of ops (including micro ops) which were discarded before commit (Count)
system.cpu.fetchStats0.numInsts             500000050                       # Number of instructions fetched (thread level) (Count)
system.cpu.fetchStats0.numOps               619058422                       # Number of ops (including micro ops) fetched (thread level) (Count)
system.cpu.fetchStats0.fetchRate             0.007064                       # Number of inst fetches per cycle ((Count/Cycle))
system.cpu.fetchStats0.numBranches           33519624                       # Number of branches fetched (Count)
system.cpu.fetchStats0.branchRate            0.000474                       # Number of branch fetches per cycle (Ratio)
system.cpu.fetchStats0.numFetchSuspends             0                       # Number of times Execute suspended instruction fetching (Count)
system.cpu.mmu.alignFaults                          0                       # Number of MMU faults due to alignment restrictions (Count)
system.cpu.mmu.prefetchFaults                       0                       # Number of MMU faults due to prefetch (Count)
system.cpu.mmu.domainFaults                         0                       # Number of MMU faults due to domain restrictions (Count)
system.cpu.mmu.permsFaults                          0                       # Number of MMU faults due to permissions restrictions (Count)
system.cpu.mmu.dtb.readHits                         0                       # Read hits (Count)
system.cpu.mmu.dtb.readMisses                       0                       # Read misses (Count)
system.cpu.mmu.dtb.writeHits                        0                       # Write hits (Count)
system.cpu.mmu.dtb.writeMisses                      0                       # Write misses (Count)
system.cpu.mmu.dtb.inserts                          0                       # Number of times an entry is inserted into the TLB (Count)
system.cpu.mmu.dtb.flushTlb                         0                       # Number of times a TLB invalidation was requested (Count)
system.cpu.mmu.dtb.flushedEntries                   0                       # Number of entries that have been flushed from TLB (Count)
system.cpu.mmu.dtb.readAccesses                     0                       # Read accesses (Count)
system.cpu.mmu.dtb.writeAccesses                    0                       # Write accesses (Count)
system.cpu.mmu.dtb.hits                             0                       # Total TLB (inst and data) hits (Count)
system.cpu.mmu.dtb.misses                           0                       # Total TLB (inst and data) misses (Count)
system.cpu.mmu.dtb.accesses                         0                       # Total TLB (inst and data) accesses (Count)
system.cpu.mmu.dtb_walker.walks                     0                       # Table walker walks requested (Count)
system.cpu.mmu.dtb_walker.requestOrigin_Requested::Data            0                       # Table walker requests started/completed, data/inst (Count)
system.cpu.mmu.dtb_walker.requestOrigin_Requested::Inst            0                       # Table walker requests started/completed, data/inst (Count)
system.cpu.mmu.dtb_walker.requestOrigin_Requested::total            0                       # Table walker requests started/completed, data/inst (Count)
system.cpu.mmu.dtb_walker.requestOrigin_Completed::Data            0                       # Table walker requests started/completed, data/inst (Count)
system.cpu.mmu.dtb_walker.requestOrigin_Completed::Inst            0                       # Table walker requests started/completed, data/inst (Count)
system.cpu.mmu.dtb_walker.requestOrigin_Completed::total            0                       # Table walker requests started/completed, data/inst (Count)
system.cpu.mmu.dtb_walker.requestOrigin::total            0                       # Table walker requests started/completed, data/inst (Count)
system.cpu.mmu.dtb_walker.power_state.pwrStateResidencyTicks::UNDEFINED 35391923211500                       # Cumulative time (in ticks) in various power states (Tick)
system.cpu.mmu.itb.instHits                         0                       # Inst hits (Count)
system.cpu.mmu.itb.instMisses                       0                       # Inst misses (Count)
system.cpu.mmu.itb.inserts                          0                       # Number of times an entry is inserted into the TLB (Count)
system.cpu.mmu.itb.flushTlb                         0                       # Number of times a TLB invalidation was requested (Count)
system.cpu.mmu.itb.flushedEntries                   0                       # Number of entries that have been flushed from TLB (Count)
system.cpu.mmu.itb.instAccesses                     0                       # Inst accesses (Count)
system.cpu.mmu.itb.hits                             0                       # Total TLB (inst and data) hits (Count)
system.cpu.mmu.itb.misses                           0                       # Total TLB (inst and data) misses (Count)
system.cpu.mmu.itb.accesses                         0                       # Total TLB (inst and data) accesses (Count)
system.cpu.mmu.itb_walker.walks                     0                       # Table walker walks requested (Count)
system.cpu.mmu.itb_walker.requestOrigin_Requested::Data            0                       # Table walker requests started/completed, data/inst (Count)
system.cpu.mmu.itb_walker.requestOrigin_Requested::Inst            0                       # Table walker requests started/completed, data/inst (Count)
system.cpu.mmu.itb_walker.requestOrigin_Requested::total            0                       # Table walker requests started/completed, data/inst (Count)
system.cpu.mmu.itb_walker.requestOrigin_Completed::Data            0                       # Table walker requests started/completed, data/inst (Count)
system.cpu.mmu.itb_walker.requestOrigin_Completed::Inst            0                       # Table walker requests started/completed, data/inst (Count)
system.cpu.mmu.itb_walker.requestOrigin_Completed::total            0                       # Table walker requests started/completed, data/inst (Count)
system.cpu.mmu.itb_walker.requestOrigin::total            0                       # Table walker requests started/completed, data/inst (Count)
system.cpu.mmu.itb_walker.power_state.pwrStateResidencyTicks::UNDEFINED 35391923211500                       # Cumulative time (in ticks) in various power states (Tick)
system.cpu.mmu.l2_shared.instHits                   0                       # Inst hits (Count)
system.cpu.mmu.l2_shared.instMisses                 0                       # Inst misses (Count)
system.cpu.mmu.l2_shared.inserts                    0                       # Number of times an entry is inserted into the TLB (Count)
system.cpu.mmu.l2_shared.flushTlb                   0                       # Number of times a TLB invalidation was requested (Count)
system.cpu.mmu.l2_shared.flushedEntries             0                       # Number of entries that have been flushed from TLB (Count)
system.cpu.mmu.l2_shared.instAccesses               0                       # Inst accesses (Count)
system.cpu.mmu.l2_shared.hits                       0                       # Total TLB (inst and data) hits (Count)
system.cpu.mmu.l2_shared.misses                     0                       # Total TLB (inst and data) misses (Count)
system.cpu.mmu.l2_shared.accesses                   0                       # Total TLB (inst and data) accesses (Count)
system.cpu.mmu.stage2_dtb.readHits                  0                       # Read hits (Count)
system.cpu.mmu.stage2_dtb.readMisses                0                       # Read misses (Count)
system.cpu.mmu.stage2_dtb.writeHits                 0                       # Write hits (Count)
system.cpu.mmu.stage2_dtb.writeMisses               0                       # Write misses (Count)
system.cpu.mmu.stage2_dtb.inserts                   0                       # Number of times an entry is inserted into the TLB (Count)
system.cpu.mmu.stage2_dtb.flushTlb                  0                       # Number of times a TLB invalidation was requested (Count)
system.cpu.mmu.stage2_dtb.flushedEntries            0                       # Number of entries that have been flushed from TLB (Count)
system.cpu.mmu.stage2_dtb.readAccesses              0                       # Read accesses (Count)
system.cpu.mmu.stage2_dtb.writeAccesses             0                       # Write accesses (Count)
system.cpu.mmu.stage2_dtb.hits                      0                       # Total TLB (inst and data) hits (Count)
system.cpu.mmu.stage2_dtb.misses                    0                       # Total TLB (inst and data) misses (Count)
system.cpu.mmu.stage2_dtb.accesses                  0                       # Total TLB (inst and data) accesses (Count)
system.cpu.mmu.stage2_dtb_walker.walks              0                       # Table walker walks requested (Count)
system.cpu.mmu.stage2_dtb_walker.requestOrigin_Requested::Data            0                       # Table walker requests started/completed, data/inst (Count)
system.cpu.mmu.stage2_dtb_walker.requestOrigin_Requested::Inst            0                       # Table walker requests started/completed, data/inst (Count)
system.cpu.mmu.stage2_dtb_walker.requestOrigin_Requested::total            0                       # Table walker requests started/completed, data/inst (Count)
system.cpu.mmu.stage2_dtb_walker.requestOrigin_Completed::Data            0                       # Table walker requests started/completed, data/inst (Count)
system.cpu.mmu.stage2_dtb_walker.requestOrigin_Completed::Inst            0                       # Table walker requests started/completed, data/inst (Count)
system.cpu.mmu.stage2_dtb_walker.requestOrigin_Completed::total            0                       # Table walker requests started/completed, data/inst (Count)
system.cpu.mmu.stage2_dtb_walker.requestOrigin::total            0                       # Table walker requests started/completed, data/inst (Count)
system.cpu.mmu.stage2_dtb_walker.power_state.pwrStateResidencyTicks::UNDEFINED 35391923211500                       # Cumulative time (in ticks) in various power states (Tick)
system.cpu.mmu.stage2_itb.instHits                  0                       # Inst hits (Count)
system.cpu.mmu.stage2_itb.instMisses                0                       # Inst misses (Count)
system.cpu.mmu.stage2_itb.inserts                   0                       # Number of times an entry is inserted into the TLB (Count)
system.cpu.mmu.stage2_itb.flushTlb                  0                       # Number of times a TLB invalidation was requested (Count)
system.cpu.mmu.stage2_itb.flushedEntries            0                       # Number of entries that have been flushed from TLB (Count)
system.cpu.mmu.stage2_itb.instAccesses              0                       # Inst accesses (Count)
system.cpu.mmu.stage2_itb.hits                      0                       # Total TLB (inst and data) hits (Count)
system.cpu.mmu.stage2_itb.misses                    0                       # Total TLB (inst and data) misses (Count)
system.cpu.mmu.stage2_itb.accesses                  0                       # Total TLB (inst and data) accesses (Count)
system.cpu.mmu.stage2_itb_walker.walks              0                       # Table walker walks requested (Count)
system.cpu.mmu.stage2_itb_walker.requestOrigin_Requested::Data            0                       # Table walker requests started/completed, data/inst (Count)
system.cpu.mmu.stage2_itb_walker.requestOrigin_Requested::Inst            0                       # Table walker requests started/completed, data/inst (Count)
system.cpu.mmu.stage2_itb_walker.requestOrigin_Requested::total            0                       # Table walker requests started/completed, data/inst (Count)
system.cpu.mmu.stage2_itb_walker.requestOrigin_Completed::Data            0                       # Table walker requests started/completed, data/inst (Count)
system.cpu.mmu.stage2_itb_walker.requestOrigin_Completed::Inst            0                       # Table walker requests started/completed, data/inst (Count)
system.cpu.mmu.stage2_itb_walker.requestOrigin_Completed::total            0                       # Table walker requests started/completed, data/inst (Count)
system.cpu.mmu.stage2_itb_walker.requestOrigin::total            0                       # Table walker requests started/completed, data/inst (Count)
system.cpu.mmu.stage2_itb_walker.power_state.pwrStateResidencyTicks::UNDEFINED 35391923211500                       # Cumulative time (in ticks) in various power states (Tick)
system.cpu.power_state.pwrStateResidencyTicks::ON 35391923211500                       # Cumulative time (in ticks) in various power states (Tick)
system.cpu.thread_0.numInsts                        0                       # Number of Instructions committed (Count)
system.cpu.thread_0.numOps                          0                       # Number of Ops committed (Count)
system.cpu.thread_0.numMemRefs                      0                       # Number of Memory References (Count)
system.cpu.workload.numSyscalls                     8                       # Number of system calls (Count)
system.mem_ctrl.avgPriority_cpu.inst::samples 539992160.00                       # Average QoS priority value for accepted requests (Count)
system.mem_ctrl.avgPriority_cpu.data::samples 185203690.00                       # Average QoS priority value for accepted requests (Count)
system.mem_ctrl.priorityMinLatency       0.000000017492                       # per QoS priority minimum request to response latency (Second)
system.mem_ctrl.priorityMaxLatency       0.025351535502                       # per QoS priority maximum request to response latency (Second)
system.mem_ctrl.numReadWriteTurnArounds        414104                       # Number of turnarounds from READ to WRITE (Count)
system.mem_ctrl.numWriteReadTurnArounds        414104                       # Number of turnarounds from WRITE to READ (Count)
system.mem_ctrl.numStayReadState           1562971157                       # Number of times bus staying in READ state (Count)
system.mem_ctrl.numStayWriteState             6916068                       # Number of times bus staying in WRITE state (Count)
system.mem_ctrl.readReqs                    753733226                       # Number of read requests accepted (Count)
system.mem_ctrl.writeReqs                   119058644                       # Number of write requests accepted (Count)
system.mem_ctrl.readBursts                  753733226                       # Number of controller read bursts, including those serviced by the write queue (Count)
system.mem_ctrl.writeBursts                 119058644                       # Number of controller write bursts, including those merged in the write queue (Count)
system.mem_ctrl.servicedByWrQ                35860840                       # Number of controller read bursts serviced by the write queue (Count)
system.mem_ctrl.mergedWrBursts              111735180                       # Number of controller write bursts merged with an existing one (Count)
system.mem_ctrl.neitherReadNorWriteReqs             0                       # Number of requests that are neither read nor write (Count)
system.mem_ctrl.avgRdQLen                        1.00                       # Average read queue length when enqueuing ((Count/Tick))
system.mem_ctrl.avgWrQLen                       56.54                       # Average write queue length when enqueuing ((Count/Tick))
system.mem_ctrl.numRdRetry                          0                       # Number of times read queue was full causing retry (Count)
system.mem_ctrl.numWrRetry                          0                       # Number of times write queue was full causing retry (Count)
system.mem_ctrl.readPktSize::0                    107                       # Read request sizes (log2) (Count)
system.mem_ctrl.readPktSize::1                     31                       # Read request sizes (log2) (Count)
system.mem_ctrl.readPktSize::2              680904765                       # Read request sizes (log2) (Count)
system.mem_ctrl.readPktSize::3               72828323                       # Read request sizes (log2) (Count)
system.mem_ctrl.readPktSize::4                      0                       # Read request sizes (log2) (Count)
system.mem_ctrl.readPktSize::5                      0                       # Read request sizes (log2) (Count)
system.mem_ctrl.readPktSize::6                      0                       # Read request sizes (log2) (Count)
system.mem_ctrl.writePktSize::0                    21                       # Write request sizes (log2) (Count)
system.mem_ctrl.writePktSize::1                    10                       # Write request sizes (log2) (Count)
system.mem_ctrl.writePktSize::2             119058454                       # Write request sizes (log2) (Count)
system.mem_ctrl.writePktSize::3                   159                       # Write request sizes (log2) (Count)
system.mem_ctrl.writePktSize::4                     0                       # Write request sizes (log2) (Count)
system.mem_ctrl.writePktSize::5                     0                       # Write request sizes (log2) (Count)
system.mem_ctrl.writePktSize::6                     0                       # Write request sizes (log2) (Count)
system.mem_ctrl.rdQLenPdf::0                717872376                       # What read queue length does an incoming req see (Count)
system.mem_ctrl.rdQLenPdf::1                       10                       # What read queue length does an incoming req see (Count)
system.mem_ctrl.rdQLenPdf::2                        0                       # What read queue length does an incoming req see (Count)
system.mem_ctrl.rdQLenPdf::3                        0                       # What read queue length does an incoming req see (Count)
system.mem_ctrl.rdQLenPdf::4                        0                       # What read queue length does an incoming req see (Count)
system.mem_ctrl.rdQLenPdf::5                        0                       # What read queue length does an incoming req see (Count)
system.mem_ctrl.rdQLenPdf::6                        0                       # What read queue length does an incoming req see (Count)
system.mem_ctrl.rdQLenPdf::7                        0                       # What read queue length does an incoming req see (Count)
system.mem_ctrl.rdQLenPdf::8                        0                       # What read queue length does an incoming req see (Count)
system.mem_ctrl.rdQLenPdf::9                        0                       # What read queue length does an incoming req see (Count)
system.mem_ctrl.rdQLenPdf::10                       0                       # What read queue length does an incoming req see (Count)
system.mem_ctrl.rdQLenPdf::11                       0                       # What read queue length does an incoming req see (Count)
system.mem_ctrl.rdQLenPdf::12                       0                       # What read queue length does an incoming req see (Count)
system.mem_ctrl.rdQLenPdf::13                       0                       # What read queue length does an incoming req see (Count)
system.mem_ctrl.rdQLenPdf::14                       0                       # What read queue length does an incoming req see (Count)
system.mem_ctrl.rdQLenPdf::15                       0                       # What read queue length does an incoming req see (Count)
system.mem_ctrl.rdQLenPdf::16                       0                       # What read queue length does an incoming req see (Count)
system.mem_ctrl.rdQLenPdf::17                       0                       # What read queue length does an incoming req see (Count)
system.mem_ctrl.rdQLenPdf::18                       0                       # What read queue length does an incoming req see (Count)
system.mem_ctrl.rdQLenPdf::19                       0                       # What read queue length does an incoming req see (Count)
system.mem_ctrl.rdQLenPdf::20                       0                       # What read queue length does an incoming req see (Count)
system.mem_ctrl.rdQLenPdf::21                       0                       # What read queue length does an incoming req see (Count)
system.mem_ctrl.rdQLenPdf::22                       0                       # What read queue length does an incoming req see (Count)
system.mem_ctrl.rdQLenPdf::23                       0                       # What read queue length does an incoming req see (Count)
system.mem_ctrl.rdQLenPdf::24                       0                       # What read queue length does an incoming req see (Count)
system.mem_ctrl.rdQLenPdf::25                       0                       # What read queue length does an incoming req see (Count)
system.mem_ctrl.rdQLenPdf::26                       0                       # What read queue length does an incoming req see (Count)
system.mem_ctrl.rdQLenPdf::27                       0                       # What read queue length does an incoming req see (Count)
system.mem_ctrl.rdQLenPdf::28                       0                       # What read queue length does an incoming req see (Count)
system.mem_ctrl.rdQLenPdf::29                       0                       # What read queue length does an incoming req see (Count)
system.mem_ctrl.rdQLenPdf::30                       0                       # What read queue length does an incoming req see (Count)
system.mem_ctrl.rdQLenPdf::31                       0                       # What read queue length does an incoming req see (Count)
system.mem_ctrl.rdQLenPdf::32                       0                       # What read queue length does an incoming req see (Count)
system.mem_ctrl.rdQLenPdf::33                       0                       # What read queue length does an incoming req see (Count)
system.mem_ctrl.rdQLenPdf::34                       0                       # What read queue length does an incoming req see (Count)
system.mem_ctrl.rdQLenPdf::35                       0                       # What read queue length does an incoming req see (Count)
system.mem_ctrl.rdQLenPdf::36                       0                       # What read queue length does an incoming req see (Count)
system.mem_ctrl.rdQLenPdf::37                       0                       # What read queue length does an incoming req see (Count)
system.mem_ctrl.rdQLenPdf::38                       0                       # What read queue length does an incoming req see (Count)
system.mem_ctrl.rdQLenPdf::39                       0                       # What read queue length does an incoming req see (Count)
system.mem_ctrl.rdQLenPdf::40                       0                       # What read queue length does an incoming req see (Count)
system.mem_ctrl.rdQLenPdf::41                       0                       # What read queue length does an incoming req see (Count)
system.mem_ctrl.rdQLenPdf::42                       0                       # What read queue length does an incoming req see (Count)
system.mem_ctrl.rdQLenPdf::43                       0                       # What read queue length does an incoming req see (Count)
system.mem_ctrl.rdQLenPdf::44                       0                       # What read queue length does an incoming req see (Count)
system.mem_ctrl.rdQLenPdf::45                       0                       # What read queue length does an incoming req see (Count)
system.mem_ctrl.rdQLenPdf::46                       0                       # What read queue length does an incoming req see (Count)
system.mem_ctrl.rdQLenPdf::47                       0                       # What read queue length does an incoming req see (Count)
system.mem_ctrl.rdQLenPdf::48                       0                       # What read queue length does an incoming req see (Count)
system.mem_ctrl.rdQLenPdf::49                       0                       # What read queue length does an incoming req see (Count)
system.mem_ctrl.rdQLenPdf::50                       0                       # What read queue length does an incoming req see (Count)
system.mem_ctrl.rdQLenPdf::51                       0                       # What read queue length does an incoming req see (Count)
system.mem_ctrl.rdQLenPdf::52                       0                       # What read queue length does an incoming req see (Count)
system.mem_ctrl.rdQLenPdf::53                       0                       # What read queue length does an incoming req see (Count)
system.mem_ctrl.rdQLenPdf::54                       0                       # What read queue length does an incoming req see (Count)
system.mem_ctrl.rdQLenPdf::55                       0                       # What read queue length does an incoming req see (Count)
system.mem_ctrl.rdQLenPdf::56                       0                       # What read queue length does an incoming req see (Count)
system.mem_ctrl.rdQLenPdf::57                       0                       # What read queue length does an incoming req see (Count)
system.mem_ctrl.rdQLenPdf::58                       0                       # What read queue length does an incoming req see (Count)
system.mem_ctrl.rdQLenPdf::59                       0                       # What read queue length does an incoming req see (Count)
system.mem_ctrl.rdQLenPdf::60                       0                       # What read queue length does an incoming req see (Count)
system.mem_ctrl.rdQLenPdf::61                       0                       # What read queue length does an incoming req see (Count)
system.mem_ctrl.rdQLenPdf::62                       0                       # What read queue length does an incoming req see (Count)
system.mem_ctrl.rdQLenPdf::63                       0                       # What read queue length does an incoming req see (Count)
system.mem_ctrl.wrQLenPdf::0                        1                       # What write queue length does an incoming req see (Count)
system.mem_ctrl.wrQLenPdf::1                        1                       # What write queue length does an incoming req see (Count)
system.mem_ctrl.wrQLenPdf::2                        1                       # What write queue length does an incoming req see (Count)
system.mem_ctrl.wrQLenPdf::3                        1                       # What write queue length does an incoming req see (Count)
system.mem_ctrl.wrQLenPdf::4                        1                       # What write queue length does an incoming req see (Count)
system.mem_ctrl.wrQLenPdf::5                        1                       # What write queue length does an incoming req see (Count)
system.mem_ctrl.wrQLenPdf::6                        1                       # What write queue length does an incoming req see (Count)
system.mem_ctrl.wrQLenPdf::7                        1                       # What write queue length does an incoming req see (Count)
system.mem_ctrl.wrQLenPdf::8                        1                       # What write queue length does an incoming req see (Count)
system.mem_ctrl.wrQLenPdf::9                        1                       # What write queue length does an incoming req see (Count)
system.mem_ctrl.wrQLenPdf::10                       1                       # What write queue length does an incoming req see (Count)
system.mem_ctrl.wrQLenPdf::11                       1                       # What write queue length does an incoming req see (Count)
system.mem_ctrl.wrQLenPdf::12                       1                       # What write queue length does an incoming req see (Count)
system.mem_ctrl.wrQLenPdf::13                       1                       # What write queue length does an incoming req see (Count)
system.mem_ctrl.wrQLenPdf::14                       1                       # What write queue length does an incoming req see (Count)
system.mem_ctrl.wrQLenPdf::15                       1                       # What write queue length does an incoming req see (Count)
system.mem_ctrl.wrQLenPdf::16                       1                       # What write queue length does an incoming req see (Count)
system.mem_ctrl.wrQLenPdf::17                       1                       # What write queue length does an incoming req see (Count)
system.mem_ctrl.wrQLenPdf::18                       1                       # What write queue length does an incoming req see (Count)
system.mem_ctrl.wrQLenPdf::19                       1                       # What write queue length does an incoming req see (Count)
system.mem_ctrl.wrQLenPdf::20                       1                       # What write queue length does an incoming req see (Count)
system.mem_ctrl.wrQLenPdf::21                       1                       # What write queue length does an incoming req see (Count)
system.mem_ctrl.wrQLenPdf::22                       1                       # What write queue length does an incoming req see (Count)
system.mem_ctrl.wrQLenPdf::23                       1                       # What write queue length does an incoming req see (Count)
system.mem_ctrl.wrQLenPdf::24                       1                       # What write queue length does an incoming req see (Count)
system.mem_ctrl.wrQLenPdf::25                       1                       # What write queue length does an incoming req see (Count)
system.mem_ctrl.wrQLenPdf::26                       1                       # What write queue length does an incoming req see (Count)
system.mem_ctrl.wrQLenPdf::27                       1                       # What write queue length does an incoming req see (Count)
system.mem_ctrl.wrQLenPdf::28                       1                       # What write queue length does an incoming req see (Count)
system.mem_ctrl.wrQLenPdf::29                       1                       # What write queue length does an incoming req see (Count)
system.mem_ctrl.wrQLenPdf::30                       1                       # What write queue length does an incoming req see (Count)
system.mem_ctrl.wrQLenPdf::31                       1                       # What write queue length does an incoming req see (Count)
system.mem_ctrl.wrQLenPdf::32                       1                       # What write queue length does an incoming req see (Count)
system.mem_ctrl.wrQLenPdf::33                       1                       # What write queue length does an incoming req see (Count)
system.mem_ctrl.wrQLenPdf::34                       1                       # What write queue length does an incoming req see (Count)
system.mem_ctrl.wrQLenPdf::35                       1                       # What write queue length does an incoming req see (Count)
system.mem_ctrl.wrQLenPdf::36                       1                       # What write queue length does an incoming req see (Count)
system.mem_ctrl.wrQLenPdf::37                       1                       # What write queue length does an incoming req see (Count)
system.mem_ctrl.wrQLenPdf::38                       1                       # What write queue length does an incoming req see (Count)
system.mem_ctrl.wrQLenPdf::39                       1                       # What write queue length does an incoming req see (Count)
system.mem_ctrl.wrQLenPdf::40                       1                       # What write queue length does an incoming req see (Count)
system.mem_ctrl.wrQLenPdf::41                       1                       # What write queue length does an incoming req see (Count)
system.mem_ctrl.wrQLenPdf::42                       1                       # What write queue length does an incoming req see (Count)
system.mem_ctrl.wrQLenPdf::43                       1                       # What write queue length does an incoming req see (Count)
system.mem_ctrl.wrQLenPdf::44                       1                       # What write queue length does an incoming req see (Count)
system.mem_ctrl.wrQLenPdf::45                       1                       # What write queue length does an incoming req see (Count)
system.mem_ctrl.wrQLenPdf::46                       1                       # What write queue length does an incoming req see (Count)
system.mem_ctrl.wrQLenPdf::47                  289833                       # What write queue length does an incoming req see (Count)
system.mem_ctrl.wrQLenPdf::48                  314397                       # What write queue length does an incoming req see (Count)
system.mem_ctrl.wrQLenPdf::49                  414888                       # What write queue length does an incoming req see (Count)
system.mem_ctrl.wrQLenPdf::50                  431631                       # What write queue length does an incoming req see (Count)
system.mem_ctrl.wrQLenPdf::51                  436100                       # What write queue length does an incoming req see (Count)
system.mem_ctrl.wrQLenPdf::52                  426735                       # What write queue length does an incoming req see (Count)
system.mem_ctrl.wrQLenPdf::53                  424430                       # What write queue length does an incoming req see (Count)
system.mem_ctrl.wrQLenPdf::54                  422692                       # What write queue length does an incoming req see (Count)
system.mem_ctrl.wrQLenPdf::55                  433436                       # What write queue length does an incoming req see (Count)
system.mem_ctrl.wrQLenPdf::56                  415707                       # What write queue length does an incoming req see (Count)
system.mem_ctrl.wrQLenPdf::57                  414688                       # What write queue length does an incoming req see (Count)
system.mem_ctrl.wrQLenPdf::58                  414147                       # What write queue length does an incoming req see (Count)
system.mem_ctrl.wrQLenPdf::59                  414130                       # What write queue length does an incoming req see (Count)
system.mem_ctrl.wrQLenPdf::60                  414118                       # What write queue length does an incoming req see (Count)
system.mem_ctrl.wrQLenPdf::61                  414105                       # What write queue length does an incoming req see (Count)
system.mem_ctrl.wrQLenPdf::62                  414104                       # What write queue length does an incoming req see (Count)
system.mem_ctrl.wrQLenPdf::63                  414104                       # What write queue length does an incoming req see (Count)
system.mem_ctrl.wrQLenPdf::64                  414104                       # What write queue length does an incoming req see (Count)
system.mem_ctrl.wrQLenPdf::65                      68                       # What write queue length does an incoming req see (Count)
system.mem_ctrl.wrQLenPdf::66                       0                       # What write queue length does an incoming req see (Count)
system.mem_ctrl.wrQLenPdf::67                       0                       # What write queue length does an incoming req see (Count)
system.mem_ctrl.wrQLenPdf::68                       0                       # What write queue length does an incoming req see (Count)
system.mem_ctrl.wrQLenPdf::69                       0                       # What write queue length does an incoming req see (Count)
system.mem_ctrl.wrQLenPdf::70                       0                       # What write queue length does an incoming req see (Count)
system.mem_ctrl.wrQLenPdf::71                       0                       # What write queue length does an incoming req see (Count)
system.mem_ctrl.wrQLenPdf::72                       0                       # What write queue length does an incoming req see (Count)
system.mem_ctrl.wrQLenPdf::73                       0                       # What write queue length does an incoming req see (Count)
system.mem_ctrl.wrQLenPdf::74                       0                       # What write queue length does an incoming req see (Count)
system.mem_ctrl.wrQLenPdf::75                       0                       # What write queue length does an incoming req see (Count)
system.mem_ctrl.wrQLenPdf::76                       0                       # What write queue length does an incoming req see (Count)
system.mem_ctrl.wrQLenPdf::77                       0                       # What write queue length does an incoming req see (Count)
system.mem_ctrl.wrQLenPdf::78                       0                       # What write queue length does an incoming req see (Count)
system.mem_ctrl.wrQLenPdf::79                       0                       # What write queue length does an incoming req see (Count)
system.mem_ctrl.wrQLenPdf::80                       0                       # What write queue length does an incoming req see (Count)
system.mem_ctrl.wrQLenPdf::81                       0                       # What write queue length does an incoming req see (Count)
system.mem_ctrl.wrQLenPdf::82                       0                       # What write queue length does an incoming req see (Count)
system.mem_ctrl.wrQLenPdf::83                       0                       # What write queue length does an incoming req see (Count)
system.mem_ctrl.wrQLenPdf::84                       0                       # What write queue length does an incoming req see (Count)
system.mem_ctrl.wrQLenPdf::85                       0                       # What write queue length does an incoming req see (Count)
system.mem_ctrl.wrQLenPdf::86                       0                       # What write queue length does an incoming req see (Count)
system.mem_ctrl.wrQLenPdf::87                       0                       # What write queue length does an incoming req see (Count)
system.mem_ctrl.wrQLenPdf::88                       0                       # What write queue length does an incoming req see (Count)
system.mem_ctrl.wrQLenPdf::89                       0                       # What write queue length does an incoming req see (Count)
system.mem_ctrl.wrQLenPdf::90                       0                       # What write queue length does an incoming req see (Count)
system.mem_ctrl.wrQLenPdf::91                       0                       # What write queue length does an incoming req see (Count)
system.mem_ctrl.wrQLenPdf::92                       0                       # What write queue length does an incoming req see (Count)
system.mem_ctrl.wrQLenPdf::93                       0                       # What write queue length does an incoming req see (Count)
system.mem_ctrl.wrQLenPdf::94                       0                       # What write queue length does an incoming req see (Count)
system.mem_ctrl.wrQLenPdf::95                       0                       # What write queue length does an incoming req see (Count)
system.mem_ctrl.wrQLenPdf::96                       0                       # What write queue length does an incoming req see (Count)
system.mem_ctrl.wrQLenPdf::97                       0                       # What write queue length does an incoming req see (Count)
system.mem_ctrl.wrQLenPdf::98                       0                       # What write queue length does an incoming req see (Count)
system.mem_ctrl.wrQLenPdf::99                       0                       # What write queue length does an incoming req see (Count)
system.mem_ctrl.wrQLenPdf::100                      0                       # What write queue length does an incoming req see (Count)
system.mem_ctrl.wrQLenPdf::101                      0                       # What write queue length does an incoming req see (Count)
system.mem_ctrl.wrQLenPdf::102                      0                       # What write queue length does an incoming req see (Count)
system.mem_ctrl.wrQLenPdf::103                      0                       # What write queue length does an incoming req see (Count)
system.mem_ctrl.wrQLenPdf::104                      0                       # What write queue length does an incoming req see (Count)
system.mem_ctrl.wrQLenPdf::105                      0                       # What write queue length does an incoming req see (Count)
system.mem_ctrl.wrQLenPdf::106                      0                       # What write queue length does an incoming req see (Count)
system.mem_ctrl.wrQLenPdf::107                      0                       # What write queue length does an incoming req see (Count)
system.mem_ctrl.wrQLenPdf::108                      0                       # What write queue length does an incoming req see (Count)
system.mem_ctrl.wrQLenPdf::109                      0                       # What write queue length does an incoming req see (Count)
system.mem_ctrl.wrQLenPdf::110                      0                       # What write queue length does an incoming req see (Count)
system.mem_ctrl.wrQLenPdf::111                      0                       # What write queue length does an incoming req see (Count)
system.mem_ctrl.wrQLenPdf::112                      0                       # What write queue length does an incoming req see (Count)
system.mem_ctrl.wrQLenPdf::113                      0                       # What write queue length does an incoming req see (Count)
system.mem_ctrl.wrQLenPdf::114                      0                       # What write queue length does an incoming req see (Count)
system.mem_ctrl.wrQLenPdf::115                      0                       # What write queue length does an incoming req see (Count)
system.mem_ctrl.wrQLenPdf::116                      0                       # What write queue length does an incoming req see (Count)
system.mem_ctrl.wrQLenPdf::117                      0                       # What write queue length does an incoming req see (Count)
system.mem_ctrl.wrQLenPdf::118                      0                       # What write queue length does an incoming req see (Count)
system.mem_ctrl.wrQLenPdf::119                      0                       # What write queue length does an incoming req see (Count)
system.mem_ctrl.wrQLenPdf::120                      0                       # What write queue length does an incoming req see (Count)
system.mem_ctrl.wrQLenPdf::121                      0                       # What write queue length does an incoming req see (Count)
system.mem_ctrl.wrQLenPdf::122                      0                       # What write queue length does an incoming req see (Count)
system.mem_ctrl.wrQLenPdf::123                      0                       # What write queue length does an incoming req see (Count)
system.mem_ctrl.wrQLenPdf::124                      0                       # What write queue length does an incoming req see (Count)
system.mem_ctrl.wrQLenPdf::125                      0                       # What write queue length does an incoming req see (Count)
system.mem_ctrl.wrQLenPdf::126                      0                       # What write queue length does an incoming req see (Count)
system.mem_ctrl.wrQLenPdf::127                      0                       # What write queue length does an incoming req see (Count)
system.mem_ctrl.rdPerTurnAround::samples       414104                       # Reads before turning the bus around for writes (Count)
system.mem_ctrl.rdPerTurnAround::mean     1733.552876                       # Reads before turning the bus around for writes (Count)
system.mem_ctrl.rdPerTurnAround::gmean    1692.923427                       # Reads before turning the bus around for writes (Count)
system.mem_ctrl.rdPerTurnAround::stdev     362.282185                       # Reads before turning the bus around for writes (Count)
system.mem_ctrl.rdPerTurnAround::384-511            5      0.00%      0.00% # Reads before turning the bus around for writes (Count)
system.mem_ctrl.rdPerTurnAround::512-639         1128      0.27%      0.27% # Reads before turning the bus around for writes (Count)
system.mem_ctrl.rdPerTurnAround::640-767         1441      0.35%      0.62% # Reads before turning the bus around for writes (Count)
system.mem_ctrl.rdPerTurnAround::768-895         2179      0.53%      1.15% # Reads before turning the bus around for writes (Count)
system.mem_ctrl.rdPerTurnAround::896-1023         5361      1.29%      2.44% # Reads before turning the bus around for writes (Count)
system.mem_ctrl.rdPerTurnAround::1024-1151        10863      2.62%      5.07% # Reads before turning the bus around for writes (Count)
system.mem_ctrl.rdPerTurnAround::1152-1279        20980      5.07%     10.13% # Reads before turning the bus around for writes (Count)
system.mem_ctrl.rdPerTurnAround::1280-1407        34685      8.38%     18.51% # Reads before turning the bus around for writes (Count)
system.mem_ctrl.rdPerTurnAround::1408-1535        46851     11.31%     29.82% # Reads before turning the bus around for writes (Count)
system.mem_ctrl.rdPerTurnAround::1536-1663        54884     13.25%     43.08% # Reads before turning the bus around for writes (Count)
system.mem_ctrl.rdPerTurnAround::1664-1791        55104     13.31%     56.38% # Reads before turning the bus around for writes (Count)
system.mem_ctrl.rdPerTurnAround::1792-1919        51656     12.47%     68.86% # Reads before turning the bus around for writes (Count)
system.mem_ctrl.rdPerTurnAround::1920-2047        45044     10.88%     79.73% # Reads before turning the bus around for writes (Count)
system.mem_ctrl.rdPerTurnAround::2048-2175        36717      8.87%     88.60% # Reads before turning the bus around for writes (Count)
system.mem_ctrl.rdPerTurnAround::2176-2303        25152      6.07%     94.67% # Reads before turning the bus around for writes (Count)
system.mem_ctrl.rdPerTurnAround::2304-2431        12503      3.02%     97.69% # Reads before turning the bus around for writes (Count)
system.mem_ctrl.rdPerTurnAround::2432-2559         5463      1.32%     99.01% # Reads before turning the bus around for writes (Count)
system.mem_ctrl.rdPerTurnAround::2560-2687         2699      0.65%     99.66% # Reads before turning the bus around for writes (Count)
system.mem_ctrl.rdPerTurnAround::2688-2815          966      0.23%     99.90% # Reads before turning the bus around for writes (Count)
system.mem_ctrl.rdPerTurnAround::2816-2943          322      0.08%     99.98% # Reads before turning the bus around for writes (Count)
system.mem_ctrl.rdPerTurnAround::2944-3071           80      0.02%     99.99% # Reads before turning the bus around for writes (Count)
system.mem_ctrl.rdPerTurnAround::3072-3199           18      0.00%    100.00% # Reads before turning the bus around for writes (Count)
system.mem_ctrl.rdPerTurnAround::3200-3327            2      0.00%    100.00% # Reads before turning the bus around for writes (Count)
system.mem_ctrl.rdPerTurnAround::5248-5375            1      0.00%    100.00% # Reads before turning the bus around for writes (Count)
system.mem_ctrl.rdPerTurnAround::total         414104                       # Reads before turning the bus around for writes (Count)
system.mem_ctrl.wrPerTurnAround::samples       414104                       # Writes before turning the bus around for reads (Count)
system.mem_ctrl.wrPerTurnAround::mean       17.684941                       # Writes before turning the bus around for reads (Count)
system.mem_ctrl.wrPerTurnAround::gmean      17.646236                       # Writes before turning the bus around for reads (Count)
system.mem_ctrl.wrPerTurnAround::stdev       1.165975                       # Writes before turning the bus around for reads (Count)
system.mem_ctrl.wrPerTurnAround::16            108799     26.27%     26.27% # Writes before turning the bus around for reads (Count)
system.mem_ctrl.wrPerTurnAround::17             11736      2.83%     29.11% # Writes before turning the bus around for reads (Count)
system.mem_ctrl.wrPerTurnAround::18            219462     53.00%     82.10% # Writes before turning the bus around for reads (Count)
system.mem_ctrl.wrPerTurnAround::19             53726     12.97%     95.08% # Writes before turning the bus around for reads (Count)
system.mem_ctrl.wrPerTurnAround::20             16002      3.86%     98.94% # Writes before turning the bus around for reads (Count)
system.mem_ctrl.wrPerTurnAround::21              4379      1.06%    100.00% # Writes before turning the bus around for reads (Count)
system.mem_ctrl.wrPerTurnAround::total         414104                       # Writes before turning the bus around for reads (Count)
system.mem_ctrl.bytesReadWrQ               2295093760                       # Total number of bytes read from write queue (Byte)
system.mem_ctrl.bytesReadSys               3306245813                       # Total read bytes from the system interface side (Byte)
system.mem_ctrl.bytesWrittenSys             476235129                       # Total written bytes from the system interface side (Byte)
system.mem_ctrl.avgRdBWSys               93418088.45035276                       # Average system read bandwidth in Byte/s ((Byte/Second))
system.mem_ctrl.avgWrBWSys               13456039.84711561                       # Average system write bandwidth in Byte/s ((Byte/Second))
system.mem_ctrl.totGap                   35391923140500                       # Total gap between requests (Tick)
system.mem_ctrl.avgGap                       40550.24                       # Average gap between requests ((Tick/Count))
system.mem_ctrl.requestorReadBytes::cpu.inst   2159968640                       # Per-requestor bytes read from memory (Byte)
system.mem_ctrl.requestorReadBytes::cpu.data   1002833813                       # Per-requestor bytes read from memory (Byte)
system.mem_ctrl.requestorWriteBytes::cpu.data     29293622                       # Per-requestor bytes write to memory (Byte)
system.mem_ctrl.requestorReadRate::cpu.inst 61029987.748678073287                       # Per-requestor bytes read from memory rate ((Byte/Second))
system.mem_ctrl.requestorReadRate::cpu.data 28335103.662130072713                       # Per-requestor bytes read from memory rate ((Byte/Second))
system.mem_ctrl.requestorWriteRate::cpu.data 827692.290835484746                       # Per-requestor bytes write to memory rate ((Byte/Second))
system.mem_ctrl.requestorReadAccesses::cpu.inst    539992160                       # Per-requestor read serviced memory accesses (Count)
system.mem_ctrl.requestorReadAccesses::cpu.data    213741066                       # Per-requestor read serviced memory accesses (Count)
system.mem_ctrl.requestorWriteAccesses::cpu.data    119058644                       # Per-requestor write serviced memory accesses (Count)
system.mem_ctrl.requestorReadTotalLat::cpu.inst 11187855776086                       # Per-requestor read total memory access latency (Tick)
system.mem_ctrl.requestorReadTotalLat::cpu.data 3848295418790                       # Per-requestor read total memory access latency (Tick)
system.mem_ctrl.requestorWriteTotalLat::cpu.data 1991340950277240                       # Per-requestor write total memory access latency (Tick)
system.mem_ctrl.requestorReadAvgLat::cpu.inst     20718.55                       # Per-requestor read average memory access latency ((Tick/Count))
system.mem_ctrl.requestorReadAvgLat::cpu.data     18004.47                       # Per-requestor read average memory access latency ((Tick/Count))
system.mem_ctrl.requestorWriteAvgLat::cpu.data  16725715.02                       # Per-requestor write average memory access latency ((Tick/Count))
system.mem_ctrl.dram.bytesRead::cpu.inst   2159968636                       # Number of bytes read from this memory (Byte)
system.mem_ctrl.dram.bytesRead::cpu.data   1146277173                       # Number of bytes read from this memory (Byte)
system.mem_ctrl.dram.bytesRead::total      3306245809                       # Number of bytes read from this memory (Byte)
system.mem_ctrl.dram.bytesInstRead::cpu.inst   2159968636                       # Number of instructions bytes read from this memory (Byte)
system.mem_ctrl.dram.bytesInstRead::total   2159968636                       # Number of instructions bytes read from this memory (Byte)
system.mem_ctrl.dram.bytesWritten::cpu.data    476235129                       # Number of bytes written to this memory (Byte)
system.mem_ctrl.dram.bytesWritten::total    476235129                       # Number of bytes written to this memory (Byte)
system.mem_ctrl.dram.numReads::cpu.inst     539992159                       # Number of read requests responded to by this memory (Count)
system.mem_ctrl.dram.numReads::cpu.data     213741066                       # Number of read requests responded to by this memory (Count)
system.mem_ctrl.dram.numReads::total        753733225                       # Number of read requests responded to by this memory (Count)
system.mem_ctrl.dram.numWrites::cpu.data    119058644                       # Number of write requests responded to by this memory (Count)
system.mem_ctrl.dram.numWrites::total       119058644                       # Number of write requests responded to by this memory (Count)
system.mem_ctrl.dram.bwRead::cpu.inst        61029988                       # Total read bandwidth from this memory ((Byte/Second))
system.mem_ctrl.dram.bwRead::cpu.data        32388101                       # Total read bandwidth from this memory ((Byte/Second))
system.mem_ctrl.dram.bwRead::total           93418088                       # Total read bandwidth from this memory ((Byte/Second))
system.mem_ctrl.dram.bwInstRead::cpu.inst     61029988                       # Instruction read bandwidth from this memory ((Byte/Second))
system.mem_ctrl.dram.bwInstRead::total       61029988                       # Instruction read bandwidth from this memory ((Byte/Second))
system.mem_ctrl.dram.bwWrite::cpu.data       13456040                       # Write bandwidth from this memory ((Byte/Second))
system.mem_ctrl.dram.bwWrite::total          13456040                       # Write bandwidth from this memory ((Byte/Second))
system.mem_ctrl.dram.bwTotal::cpu.inst       61029988                       # Total bandwidth to/from this memory ((Byte/Second))
system.mem_ctrl.dram.bwTotal::cpu.data       45844141                       # Total bandwidth to/from this memory ((Byte/Second))
system.mem_ctrl.dram.bwTotal::total         106874128                       # Total bandwidth to/from this memory ((Byte/Second))
system.mem_ctrl.dram.readBursts             717872386                       # Number of DRAM read bursts (Count)
system.mem_ctrl.dram.writeBursts              7323405                       # Number of DRAM write bursts (Count)
system.mem_ctrl.dram.perBankRdBursts::0     541389882                       # Per bank write bursts (Count)
system.mem_ctrl.dram.perBankRdBursts::1       1407843                       # Per bank write bursts (Count)
system.mem_ctrl.dram.perBankRdBursts::2       1404393                       # Per bank write bursts (Count)
system.mem_ctrl.dram.perBankRdBursts::3       1406803                       # Per bank write bursts (Count)
system.mem_ctrl.dram.perBankRdBursts::4       1407096                       # Per bank write bursts (Count)
system.mem_ctrl.dram.perBankRdBursts::5       1409896                       # Per bank write bursts (Count)
system.mem_ctrl.dram.perBankRdBursts::6       1407959                       # Per bank write bursts (Count)
system.mem_ctrl.dram.perBankRdBursts::7       1405514                       # Per bank write bursts (Count)
system.mem_ctrl.dram.perBankRdBursts::8       1406575                       # Per bank write bursts (Count)
system.mem_ctrl.dram.perBankRdBursts::9       1414519                       # Per bank write bursts (Count)
system.mem_ctrl.dram.perBankRdBursts::10      1414656                       # Per bank write bursts (Count)
system.mem_ctrl.dram.perBankRdBursts::11      1410199                       # Per bank write bursts (Count)
system.mem_ctrl.dram.perBankRdBursts::12      1412667                       # Per bank write bursts (Count)
system.mem_ctrl.dram.perBankRdBursts::13      1414885                       # Per bank write bursts (Count)
system.mem_ctrl.dram.perBankRdBursts::14      1413550                       # Per bank write bursts (Count)
system.mem_ctrl.dram.perBankRdBursts::15      1412017                       # Per bank write bursts (Count)
system.mem_ctrl.dram.perBankRdBursts::16      1409272                       # Per bank write bursts (Count)
system.mem_ctrl.dram.perBankRdBursts::17      1411502                       # Per bank write bursts (Count)
system.mem_ctrl.dram.perBankRdBursts::18      1412570                       # Per bank write bursts (Count)
system.mem_ctrl.dram.perBankRdBursts::19      1412498                       # Per bank write bursts (Count)
system.mem_ctrl.dram.perBankRdBursts::20      1407757                       # Per bank write bursts (Count)
system.mem_ctrl.dram.perBankRdBursts::21      1408556                       # Per bank write bursts (Count)
system.mem_ctrl.dram.perBankRdBursts::22      1415026                       # Per bank write bursts (Count)
system.mem_ctrl.dram.perBankRdBursts::23      1412519                       # Per bank write bursts (Count)
system.mem_ctrl.dram.perBankRdBursts::24      1414182                       # Per bank write bursts (Count)
system.mem_ctrl.dram.perBankRdBursts::25      1409082                       # Per bank write bursts (Count)
system.mem_ctrl.dram.perBankRdBursts::26      1412469                       # Per bank write bursts (Count)
system.mem_ctrl.dram.perBankRdBursts::27      1410346                       # Per bank write bursts (Count)
system.mem_ctrl.dram.perBankRdBursts::28    134186898                       # Per bank write bursts (Count)
system.mem_ctrl.dram.perBankRdBursts::29      1402338                       # Per bank write bursts (Count)
system.mem_ctrl.dram.perBankRdBursts::30      1402163                       # Per bank write bursts (Count)
system.mem_ctrl.dram.perBankRdBursts::31      1406754                       # Per bank write bursts (Count)
system.mem_ctrl.dram.perBankWrBursts::0        214407                       # Per bank write bursts (Count)
system.mem_ctrl.dram.perBankWrBursts::1        224674                       # Per bank write bursts (Count)
system.mem_ctrl.dram.perBankWrBursts::2        217798                       # Per bank write bursts (Count)
system.mem_ctrl.dram.perBankWrBursts::3        216275                       # Per bank write bursts (Count)
system.mem_ctrl.dram.perBankWrBursts::4        216105                       # Per bank write bursts (Count)
system.mem_ctrl.dram.perBankWrBursts::5        221795                       # Per bank write bursts (Count)
system.mem_ctrl.dram.perBankWrBursts::6        218996                       # Per bank write bursts (Count)
system.mem_ctrl.dram.perBankWrBursts::7        214198                       # Per bank write bursts (Count)
system.mem_ctrl.dram.perBankWrBursts::8        216221                       # Per bank write bursts (Count)
system.mem_ctrl.dram.perBankWrBursts::9        222034                       # Per bank write bursts (Count)
system.mem_ctrl.dram.perBankWrBursts::10       223205                       # Per bank write bursts (Count)
system.mem_ctrl.dram.perBankWrBursts::11       219119                       # Per bank write bursts (Count)
system.mem_ctrl.dram.perBankWrBursts::12       222057                       # Per bank write bursts (Count)
system.mem_ctrl.dram.perBankWrBursts::13       223228                       # Per bank write bursts (Count)
system.mem_ctrl.dram.perBankWrBursts::14       225602                       # Per bank write bursts (Count)
system.mem_ctrl.dram.perBankWrBursts::15       224965                       # Per bank write bursts (Count)
system.mem_ctrl.dram.perBankWrBursts::16       217245                       # Per bank write bursts (Count)
system.mem_ctrl.dram.perBankWrBursts::17       219304                       # Per bank write bursts (Count)
system.mem_ctrl.dram.perBankWrBursts::18       219771                       # Per bank write bursts (Count)
system.mem_ctrl.dram.perBankWrBursts::19       219825                       # Per bank write bursts (Count)
system.mem_ctrl.dram.perBankWrBursts::20       214602                       # Per bank write bursts (Count)
system.mem_ctrl.dram.perBankWrBursts::21       218008                       # Per bank write bursts (Count)
system.mem_ctrl.dram.perBankWrBursts::22       217293                       # Per bank write bursts (Count)
system.mem_ctrl.dram.perBankWrBursts::23       216668                       # Per bank write bursts (Count)
system.mem_ctrl.dram.perBankWrBursts::24       218690                       # Per bank write bursts (Count)
system.mem_ctrl.dram.perBankWrBursts::25       222246                       # Per bank write bursts (Count)
system.mem_ctrl.dram.perBankWrBursts::26       218622                       # Per bank write bursts (Count)
system.mem_ctrl.dram.perBankWrBursts::27       218312                       # Per bank write bursts (Count)
system.mem_ctrl.dram.perBankWrBursts::28       515964                       # Per bank write bursts (Count)
system.mem_ctrl.dram.perBankWrBursts::29       226494                       # Per bank write bursts (Count)
system.mem_ctrl.dram.perBankWrBursts::30       219862                       # Per bank write bursts (Count)
system.mem_ctrl.dram.perBankWrBursts::31       219820                       # Per bank write bursts (Count)
system.mem_ctrl.dram.totQLat             2479127418964                       # Total ticks spent queuing (Tick)
system.mem_ctrl.dram.totBusLat           2391950790152                       # Total ticks spent in databus transfers (Tick)
system.mem_ctrl.dram.totMemAccLat        15036151194876                       # Total ticks spent from burst creation until serviced by the DRAM (Tick)
system.mem_ctrl.dram.avgQLat                  3453.44                       # Average queueing delay per DRAM burst ((Tick/Count))
system.mem_ctrl.dram.avgBusLat                3332.00                       # Average bus latency per DRAM burst ((Tick/Count))
system.mem_ctrl.dram.avgMemAccLat            20945.44                       # Average memory access latency per DRAM burst ((Tick/Count))
system.mem_ctrl.dram.readRowHits            656415272                       # Number of row buffer hits during reads (Count)
system.mem_ctrl.dram.writeRowHits             6044189                       # Number of row buffer hits during writes (Count)
system.mem_ctrl.dram.readRowHitRate             91.44                       # Row buffer hit rate for reads (Ratio)
system.mem_ctrl.dram.writeRowHitRate            82.53                       # Row buffer hit rate for writes (Ratio)
system.mem_ctrl.dram.bytesPerActivate::samples     62736327                       # Bytes accessed per row activation (Byte)
system.mem_ctrl.dram.bytesPerActivate::mean   739.803109                       # Bytes accessed per row activation (Byte)
system.mem_ctrl.dram.bytesPerActivate::gmean   571.390095                       # Bytes accessed per row activation (Byte)
system.mem_ctrl.dram.bytesPerActivate::stdev   374.600620                       # Bytes accessed per row activation (Byte)
system.mem_ctrl.dram.bytesPerActivate::0-127      4613990      7.35%      7.35% # Bytes accessed per row activation (Byte)
system.mem_ctrl.dram.bytesPerActivate::128-255      5465642      8.71%     16.07% # Bytes accessed per row activation (Byte)
system.mem_ctrl.dram.bytesPerActivate::256-383      6131337      9.77%     25.84% # Bytes accessed per row activation (Byte)
system.mem_ctrl.dram.bytesPerActivate::384-511      4203906      6.70%     32.54% # Bytes accessed per row activation (Byte)
system.mem_ctrl.dram.bytesPerActivate::512-639      1368320      2.18%     34.72% # Bytes accessed per row activation (Byte)
system.mem_ctrl.dram.bytesPerActivate::640-767      1277761      2.04%     36.76% # Bytes accessed per row activation (Byte)
system.mem_ctrl.dram.bytesPerActivate::768-895      1283978      2.05%     38.81% # Bytes accessed per row activation (Byte)
system.mem_ctrl.dram.bytesPerActivate::896-1023      1418239      2.26%     41.07% # Bytes accessed per row activation (Byte)
system.mem_ctrl.dram.bytesPerActivate::1024-1151     36973154     58.93%    100.00% # Bytes accessed per row activation (Byte)
system.mem_ctrl.dram.bytesPerActivate::total     62736327                       # Bytes accessed per row activation (Byte)
system.mem_ctrl.dram.dramBytesRead        45943832704                       # Total bytes read (Byte)
system.mem_ctrl.dram.dramBytesWritten       468697920                       # Total bytes written (Byte)
system.mem_ctrl.dram.avgRdBW              1298.144563                       # Average DRAM read bandwidth in MiBytes/s ((Byte/Second))
system.mem_ctrl.dram.avgWrBW                13.243076                       # Average DRAM write bandwidth in MiBytes/s ((Byte/Second))
system.mem_ctrl.dram.peakBW                  19207.00                       # Theoretical peak bandwidth in MiByte/s ((Byte/Second))
system.mem_ctrl.dram.busUtil                     6.83                       # Data bus utilization in percentage (Ratio)
system.mem_ctrl.dram.busUtilRead                 6.76                       # Data bus utilization in percentage for reads (Ratio)
system.mem_ctrl.dram.busUtilWrite                0.07                       # Data bus utilization in percentage for writes (Ratio)
system.mem_ctrl.dram.pageHitRate                91.35                       # Row buffer hit rate, read and write combined (Ratio)
system.mem_ctrl.dram.power_state.pwrStateResidencyTicks::UNDEFINED 35391923211500                       # Cumulative time (in ticks) in various power states (Tick)
system.mem_ctrl.dram.rank0.actEnergy     69943873738.705231                       # Energy for activate commands per rank (pJ) (Joule)
system.mem_ctrl.dram.rank0.preEnergy     123477835878.830872                       # Energy for precharge commands per rank (pJ) (Joule)
system.mem_ctrl.dram.rank0.readEnergy    1542988075558.739746                       # Energy for read commands per rank (pJ) (Joule)
system.mem_ctrl.dram.rank0.writeEnergy   8305478919.039730                       # Energy for write commands per rank (pJ) (Joule)
system.mem_ctrl.dram.rank0.refreshEnergy 3072221703170.316406                       # Energy for refresh commands per rank (pJ) (Joule)
system.mem_ctrl.dram.rank0.actBackEnergy 16403894452914.841797                       # Energy for active background per rank (pJ) (Joule)
system.mem_ctrl.dram.rank0.preBackEnergy 227407768656.380463                       # Energy for precharge background per rank (pJ) (Joule)
system.mem_ctrl.dram.rank0.actPowerDownEnergy            0                       # Energy for active power-down per rank (pJ) (Joule)
system.mem_ctrl.dram.rank0.prePowerDownEnergy            0                       # Energy for precharge power-down per rank (pJ) (Joule)
system.mem_ctrl.dram.rank0.selfRefreshEnergy            0                       # Energy for self refresh per rank (pJ) (Joule)
system.mem_ctrl.dram.rank0.totalEnergy   21448239188816.582031                       # Total energy per rank (pJ) (Joule)
system.mem_ctrl.dram.rank0.averagePower    606.020731                       # Core power per rank (mW) (Watt)
system.mem_ctrl.dram.rank0.totalIdleTime            0                       # Total Idle time Per DRAM Rank (Tick)
system.mem_ctrl.dram.rank0.pwrStateTime::IDLE 421333034282                       # Time in different power states (Tick)
system.mem_ctrl.dram.rank0.pwrStateTime::REF 1590987300000                       # Time in different power states (Tick)
system.mem_ctrl.dram.rank0.pwrStateTime::SREF            0                       # Time in different power states (Tick)
system.mem_ctrl.dram.rank0.pwrStateTime::PRE_PDN            0                       # Time in different power states (Tick)
system.mem_ctrl.dram.rank0.pwrStateTime::ACT 33379602877218                       # Time in different power states (Tick)
system.mem_ctrl.dram.rank0.pwrStateTime::ACT_PDN            0                       # Time in different power states (Tick)
system.mem_ctrl.dram.rank1.actEnergy     27885653595.652592                       # Energy for activate commands per rank (pJ) (Joule)
system.mem_ctrl.dram.rank1.preEnergy     49228898339.821770                       # Energy for precharge commands per rank (pJ) (Joule)
system.mem_ctrl.dram.rank1.readEnergy    426065814886.923096                       # Energy for read commands per rank (pJ) (Joule)
system.mem_ctrl.dram.rank1.writeEnergy   8970843586.675070                       # Energy for write commands per rank (pJ) (Joule)
system.mem_ctrl.dram.rank1.refreshEnergy 3072221703170.316406                       # Energy for refresh commands per rank (pJ) (Joule)
system.mem_ctrl.dram.rank1.actBackEnergy 16259856528748.875000                       # Energy for active background per rank (pJ) (Joule)
system.mem_ctrl.dram.rank1.preBackEnergy 326845117421.780701                       # Energy for precharge background per rank (pJ) (Joule)
system.mem_ctrl.dram.rank1.actPowerDownEnergy            0                       # Energy for active power-down per rank (pJ) (Joule)
system.mem_ctrl.dram.rank1.prePowerDownEnergy            0                       # Energy for precharge power-down per rank (pJ) (Joule)
system.mem_ctrl.dram.rank1.selfRefreshEnergy            0                       # Energy for self refresh per rank (pJ) (Joule)
system.mem_ctrl.dram.rank1.totalEnergy   20171074559583.097656                       # Total energy per rank (pJ) (Joule)
system.mem_ctrl.dram.rank1.averagePower    569.934401                       # Core power per rank (mW) (Watt)
system.mem_ctrl.dram.rank1.totalIdleTime            0                       # Total Idle time Per DRAM Rank (Tick)
system.mem_ctrl.dram.rank1.pwrStateTime::IDLE 851351570714                       # Time in different power states (Tick)
system.mem_ctrl.dram.rank1.pwrStateTime::REF 1590987300000                       # Time in different power states (Tick)
system.mem_ctrl.dram.rank1.pwrStateTime::SREF            0                       # Time in different power states (Tick)
system.mem_ctrl.dram.rank1.pwrStateTime::PRE_PDN            0                       # Time in different power states (Tick)
system.mem_ctrl.dram.rank1.pwrStateTime::ACT 32949584340786                       # Time in different power states (Tick)
system.mem_ctrl.dram.rank1.pwrStateTime::ACT_PDN            0                       # Time in different power states (Tick)
system.mem_ctrl.power_state.pwrStateResidencyTicks::UNDEFINED 35391923211500                       # Cumulative time (in ticks) in various power states (Tick)
system.membus.transDist::ReadReq            753733193                       # Transaction distribution (Count)
system.membus.transDist::ReadResp           753733196                       # Transaction distribution (Count)
system.membus.transDist::WriteReq           119058640                       # Transaction distribution (Count)
system.membus.transDist::WriteResp          119058640                       # Transaction distribution (Count)
system.membus.transDist::SoftPFReq                 29                       # Transaction distribution (Count)
system.membus.transDist::SoftPFResp                29                       # Transaction distribution (Count)
system.membus.transDist::LoadLockedReq              4                       # Transaction distribution (Count)
system.membus.transDist::StoreCondReq               4                       # Transaction distribution (Count)
system.membus.transDist::StoreCondResp              4                       # Transaction distribution (Count)
system.membus.pktCount_system.cpu.icache_port::system.mem_ctrl.port   1079984319                       # Packet count per connected requestor and responder (Count)
system.membus.pktCount_system.cpu.dcache_port::system.mem_ctrl.port    665599420                       # Packet count per connected requestor and responder (Count)
system.membus.pktCount::total              1745583739                       # Packet count per connected requestor and responder (Count)
system.membus.pktSize_system.cpu.icache_port::system.mem_ctrl.port   2159968636                       # Cumulative packet size per connected requestor and responder (Byte)
system.membus.pktSize_system.cpu.dcache_port::system.mem_ctrl.port   1622512302                       # Cumulative packet size per connected requestor and responder (Byte)
system.membus.pktSize::total               3782480938                       # Cumulative packet size per connected requestor and responder (Byte)
system.membus.snoops                                0                       # Total snoops (Count)
system.membus.snoopTraffic                          0                       # Total snoop traffic (Byte)
system.membus.snoopFanout::samples          872791870                       # Request fanout histogram (Count)
system.membus.snoopFanout::mean                     0                       # Request fanout histogram (Count)
system.membus.snoopFanout::stdev                    0                       # Request fanout histogram (Count)
system.membus.snoopFanout::underflows               0      0.00%      0.00% # Request fanout histogram (Count)
system.membus.snoopFanout::0                872791870    100.00%    100.00% # Request fanout histogram (Count)
system.membus.snoopFanout::1                        0      0.00%    100.00% # Request fanout histogram (Count)
system.membus.snoopFanout::overflows                0      0.00%    100.00% # Request fanout histogram (Count)
system.membus.snoopFanout::min_value                0                       # Request fanout histogram (Count)
system.membus.snoopFanout::max_value                0                       # Request fanout histogram (Count)
system.membus.snoopFanout::total            872791870                       # Request fanout histogram (Count)
system.membus.power_state.pwrStateResidencyTicks::UNDEFINED 35391923211500                       # Cumulative time (in ticks) in various power states (Tick)
system.membus.reqLayer0.occupancy        495925257000                       # Layer occupancy (ticks) (Tick)
system.membus.reqLayer0.utilization               0.0                       # Layer utilization (Ratio)
system.membus.respLayer0.occupancy       556402434906                       # Layer occupancy (ticks) (Tick)
system.membus.respLayer0.utilization              0.0                       # Layer utilization (Ratio)
system.membus.respLayer1.occupancy       282501634710                       # Layer occupancy (ticks) (Tick)
system.membus.respLayer1.utilization              0.0                       # Layer utilization (Ratio)
system.membus.snoop_filter.totRequests              0                       # Total number of requests made to the snoop filter. (Count)
system.membus.snoop_filter.hitSingleRequests            0                       # Number of requests hitting in the snoop filter with a single holder of the requested data. (Count)
system.membus.snoop_filter.hitMultiRequests            0                       # Number of requests hitting in the snoop filter with multiple (>1) holders of the requested data. (Count)
system.membus.snoop_filter.totSnoops                0                       # Total number of snoops made to the snoop filter. (Count)
system.membus.snoop_filter.hitSingleSnoops            0                       # Number of snoops hitting in the snoop filter with a single holder of the requested data. (Count)
system.membus.snoop_filter.hitMultiSnoops            0                       # Number of snoops hitting in the snoop filter with multiple (>1) holders of the requested data. (Count)
system.workload.inst.arm                            0                       # number of arm instructions executed (Count)
system.workload.inst.quiesce                        0                       # number of quiesce instructions executed (Count)

---------- End Simulation Statistics   ----------
