
---------- Begin Simulation Statistics ----------
simSeconds                                  32.936541                       # Number of seconds simulated (Second)
simTicks                                 32936541387000                       # Number of ticks simulated (Tick)
finalTick                                32936541387000                       # Number of ticks from beginning of simulation (restored from checkpoints and never reset) (Tick)
simFreq                                  1000000000000                       # The number of ticks per simulated second ((Tick/Second))
hostSeconds                                   7140.89                       # Real time elapsed on the host (Second)
hostTickRate                               4612386381                       # The number of ticks simulated per host second (ticks/s) ((Tick/Second))
hostMemory                                    2504488                       # Number of bytes of host memory used (Byte)
simInsts                                    500000000                       # Number of instructions simulated (Count)
simOps                                      508660670                       # Number of ops (including micro ops) simulated (Count)
hostInstRate                                    70019                       # Simulator instruction rate (inst/s) ((Count/Second))
hostOpRate                                      71232                       # Simulator op (including micro ops) rate (op/s) ((Count/Second))
system.clk_domain.clock                           500                       # Clock period in ticks (Tick)
system.clk_domain.voltage_domain.voltage            1                       # Voltage in Volts (Volt)
system.cpu.numCycles                      65873082774                       # Number of cpu cycles simulated (Cycle)
system.cpu.cpi                             131.746152                       # CPI: cycles per instruction (core level) ((Cycle/Count))
system.cpu.ipc                               0.007590                       # IPC: instructions per cycle (core level) ((Count/Cycle))
system.cpu.numWorkItemsStarted                      0                       # Number of work items this cpu started (Count)
system.cpu.numWorkItemsCompleted                    0                       # Number of work items this cpu completed (Count)
system.cpu.commitStats0.numInsts            500000050                       # Number of instructions committed (thread level) (Count)
system.cpu.commitStats0.numOps              508660769                       # Number of ops (including micro ops) committed (thread level) (Count)
system.cpu.commitStats0.numInstsNotNOP              0                       # Number of instructions committed excluding NOPs or prefetches (Count)
system.cpu.commitStats0.numOpsNotNOP                0                       # Number of Ops (including micro ops) Simulated (Count)
system.cpu.commitStats0.cpi                131.746152                       # CPI: cycles per instruction (thread level) ((Cycle/Count))
system.cpu.commitStats0.ipc                  0.007590                       # IPC: instructions per cycle (thread level) ((Count/Cycle))
system.cpu.commitStats0.numMemRefs                  0                       # Number of memory references committed (Count)
system.cpu.commitStats0.numFpInsts                  0                       # Number of float instructions (Count)
system.cpu.commitStats0.numIntInsts         488509915                       # Number of integer instructions (Count)
system.cpu.commitStats0.numLoadInsts        165643163                       # Number of load instructions (Count)
system.cpu.commitStats0.numStoreInsts        35785031                       # Number of store instructions (Count)
system.cpu.commitStats0.numVecInsts                 0                       # Number of vector instructions (Count)
system.cpu.commitStats0.committedInstType::No_OpClass            0      0.00%      0.00% # Class of committed instruction. (Count)
system.cpu.commitStats0.committedInstType::IntAlu    282176752     55.47%     55.47% # Class of committed instruction. (Count)
system.cpu.commitStats0.committedInstType::IntMult     25055806      4.93%     60.40% # Class of committed instruction. (Count)
system.cpu.commitStats0.committedInstType::IntDiv            0      0.00%     60.40% # Class of committed instruction. (Count)
system.cpu.commitStats0.committedInstType::FloatAdd            0      0.00%     60.40% # Class of committed instruction. (Count)
system.cpu.commitStats0.committedInstType::FloatCmp            0      0.00%     60.40% # Class of committed instruction. (Count)
system.cpu.commitStats0.committedInstType::FloatCvt            0      0.00%     60.40% # Class of committed instruction. (Count)
system.cpu.commitStats0.committedInstType::FloatMult            0      0.00%     60.40% # Class of committed instruction. (Count)
system.cpu.commitStats0.committedInstType::FloatMultAcc            0      0.00%     60.40% # Class of committed instruction. (Count)
system.cpu.commitStats0.committedInstType::FloatDiv            0      0.00%     60.40% # Class of committed instruction. (Count)
system.cpu.commitStats0.committedInstType::FloatMisc            0      0.00%     60.40% # Class of committed instruction. (Count)
system.cpu.commitStats0.committedInstType::FloatSqrt            0      0.00%     60.40% # Class of committed instruction. (Count)
system.cpu.commitStats0.committedInstType::SimdAdd            0      0.00%     60.40% # Class of committed instruction. (Count)
system.cpu.commitStats0.committedInstType::SimdAddAcc            0      0.00%     60.40% # Class of committed instruction. (Count)
system.cpu.commitStats0.committedInstType::SimdAlu            0      0.00%     60.40% # Class of committed instruction. (Count)
system.cpu.commitStats0.committedInstType::SimdCmp            0      0.00%     60.40% # Class of committed instruction. (Count)
system.cpu.commitStats0.committedInstType::SimdCvt            0      0.00%     60.40% # Class of committed instruction. (Count)
system.cpu.commitStats0.committedInstType::SimdMisc            0      0.00%     60.40% # Class of committed instruction. (Count)
system.cpu.commitStats0.committedInstType::SimdMult            0      0.00%     60.40% # Class of committed instruction. (Count)
system.cpu.commitStats0.committedInstType::SimdMultAcc            0      0.00%     60.40% # Class of committed instruction. (Count)
system.cpu.commitStats0.committedInstType::SimdMatMultAcc            0      0.00%     60.40% # Class of committed instruction. (Count)
system.cpu.commitStats0.committedInstType::SimdShift            0      0.00%     60.40% # Class of committed instruction. (Count)
system.cpu.commitStats0.committedInstType::SimdShiftAcc            0      0.00%     60.40% # Class of committed instruction. (Count)
system.cpu.commitStats0.committedInstType::SimdDiv            0      0.00%     60.40% # Class of committed instruction. (Count)
system.cpu.commitStats0.committedInstType::SimdSqrt            0      0.00%     60.40% # Class of committed instruction. (Count)
system.cpu.commitStats0.committedInstType::SimdFloatAdd            0      0.00%     60.40% # Class of committed instruction. (Count)
system.cpu.commitStats0.committedInstType::SimdFloatAlu            0      0.00%     60.40% # Class of committed instruction. (Count)
system.cpu.commitStats0.committedInstType::SimdFloatCmp            0      0.00%     60.40% # Class of committed instruction. (Count)
system.cpu.commitStats0.committedInstType::SimdFloatCvt            0      0.00%     60.40% # Class of committed instruction. (Count)
system.cpu.commitStats0.committedInstType::SimdFloatDiv            0      0.00%     60.40% # Class of committed instruction. (Count)
system.cpu.commitStats0.committedInstType::SimdFloatMisc           17      0.00%     60.40% # Class of committed instruction. (Count)
system.cpu.commitStats0.committedInstType::SimdFloatMult            0      0.00%     60.40% # Class of committed instruction. (Count)
system.cpu.commitStats0.committedInstType::SimdFloatMultAcc            0      0.00%     60.40% # Class of committed instruction. (Count)
system.cpu.commitStats0.committedInstType::SimdFloatMatMultAcc            0      0.00%     60.40% # Class of committed instruction. (Count)
system.cpu.commitStats0.committedInstType::SimdFloatSqrt            0      0.00%     60.40% # Class of committed instruction. (Count)
system.cpu.commitStats0.committedInstType::SimdReduceAdd            0      0.00%     60.40% # Class of committed instruction. (Count)
system.cpu.commitStats0.committedInstType::SimdReduceAlu            0      0.00%     60.40% # Class of committed instruction. (Count)
system.cpu.commitStats0.committedInstType::SimdReduceCmp            0      0.00%     60.40% # Class of committed instruction. (Count)
system.cpu.commitStats0.committedInstType::SimdFloatReduceAdd            0      0.00%     60.40% # Class of committed instruction. (Count)
system.cpu.commitStats0.committedInstType::SimdFloatReduceCmp            0      0.00%     60.40% # Class of committed instruction. (Count)
system.cpu.commitStats0.committedInstType::SimdAes            0      0.00%     60.40% # Class of committed instruction. (Count)
system.cpu.commitStats0.committedInstType::SimdAesMix            0      0.00%     60.40% # Class of committed instruction. (Count)
system.cpu.commitStats0.committedInstType::SimdSha1Hash            0      0.00%     60.40% # Class of committed instruction. (Count)
system.cpu.commitStats0.committedInstType::SimdSha1Hash2            0      0.00%     60.40% # Class of committed instruction. (Count)
system.cpu.commitStats0.committedInstType::SimdSha256Hash            0      0.00%     60.40% # Class of committed instruction. (Count)
system.cpu.commitStats0.committedInstType::SimdSha256Hash2            0      0.00%     60.40% # Class of committed instruction. (Count)
system.cpu.commitStats0.committedInstType::SimdShaSigma2            0      0.00%     60.40% # Class of committed instruction. (Count)
system.cpu.commitStats0.committedInstType::SimdShaSigma3            0      0.00%     60.40% # Class of committed instruction. (Count)
system.cpu.commitStats0.committedInstType::SimdPredAlu            0      0.00%     60.40% # Class of committed instruction. (Count)
system.cpu.commitStats0.committedInstType::Matrix            0      0.00%     60.40% # Class of committed instruction. (Count)
system.cpu.commitStats0.committedInstType::MatrixMov            0      0.00%     60.40% # Class of committed instruction. (Count)
system.cpu.commitStats0.committedInstType::MatrixOP            0      0.00%     60.40% # Class of committed instruction. (Count)
system.cpu.commitStats0.committedInstType::MemRead    165643163     32.56%     92.96% # Class of committed instruction. (Count)
system.cpu.commitStats0.committedInstType::MemWrite     35785031      7.04%    100.00% # Class of committed instruction. (Count)
system.cpu.commitStats0.committedInstType::FloatMemRead            0      0.00%    100.00% # Class of committed instruction. (Count)
system.cpu.commitStats0.committedInstType::FloatMemWrite            0      0.00%    100.00% # Class of committed instruction. (Count)
system.cpu.commitStats0.committedInstType::IprAccess            0      0.00%    100.00% # Class of committed instruction. (Count)
system.cpu.commitStats0.committedInstType::InstPrefetch            0      0.00%    100.00% # Class of committed instruction. (Count)
system.cpu.commitStats0.committedInstType::SimdUnitStrideLoad            0      0.00%    100.00% # Class of committed instruction. (Count)
system.cpu.commitStats0.committedInstType::SimdUnitStrideStore            0      0.00%    100.00% # Class of committed instruction. (Count)
system.cpu.commitStats0.committedInstType::SimdUnitStrideMaskLoad            0      0.00%    100.00% # Class of committed instruction. (Count)
system.cpu.commitStats0.committedInstType::SimdUnitStrideMaskStore            0      0.00%    100.00% # Class of committed instruction. (Count)
system.cpu.commitStats0.committedInstType::SimdStridedLoad            0      0.00%    100.00% # Class of committed instruction. (Count)
system.cpu.commitStats0.committedInstType::SimdStridedStore            0      0.00%    100.00% # Class of committed instruction. (Count)
system.cpu.commitStats0.committedInstType::SimdIndexedLoad            0      0.00%    100.00% # Class of committed instruction. (Count)
system.cpu.commitStats0.committedInstType::SimdIndexedStore            0      0.00%    100.00% # Class of committed instruction. (Count)
system.cpu.commitStats0.committedInstType::SimdWholeRegisterLoad            0      0.00%    100.00% # Class of committed instruction. (Count)
system.cpu.commitStats0.committedInstType::SimdWholeRegisterStore            0      0.00%    100.00% # Class of committed instruction. (Count)
system.cpu.commitStats0.committedInstType::SimdUnitStrideFaultOnlyFirstLoad            0      0.00%    100.00% # Class of committed instruction. (Count)
system.cpu.commitStats0.committedInstType::SimdUnitStrideSegmentedLoad            0      0.00%    100.00% # Class of committed instruction. (Count)
system.cpu.commitStats0.committedInstType::SimdUnitStrideSegmentedStore            0      0.00%    100.00% # Class of committed instruction. (Count)
system.cpu.commitStats0.committedInstType::SimdExt            0      0.00%    100.00% # Class of committed instruction. (Count)
system.cpu.commitStats0.committedInstType::SimdFloatExt            0      0.00%    100.00% # Class of committed instruction. (Count)
system.cpu.commitStats0.committedInstType::SimdConfig            0      0.00%    100.00% # Class of committed instruction. (Count)
system.cpu.commitStats0.committedInstType::total    508660769                       # Class of committed instruction. (Count)
system.cpu.commitStats0.committedControl::IsControl     25343151                       # Class of control type instructions committed (Count)
system.cpu.commitStats0.committedControl::IsDirectControl     21013081                       # Class of control type instructions committed (Count)
system.cpu.commitStats0.committedControl::IsIndirectControl      4330070                       # Class of control type instructions committed (Count)
system.cpu.commitStats0.committedControl::IsCondControl     15820900                       # Class of control type instructions committed (Count)
system.cpu.commitStats0.committedControl::IsUncondControl      9522251                       # Class of control type instructions committed (Count)
system.cpu.commitStats0.committedControl::IsCall      4330004                       # Class of control type instructions committed (Count)
system.cpu.commitStats0.committedControl::IsReturn      4330002                       # Class of control type instructions committed (Count)
system.cpu.exec_context.thread_0.numMatAluAccesses            0                       # Number of matrix alu accesses (Count)
system.cpu.exec_context.thread_0.numCallsReturns      8660006                       # Number of times a function call or return occured (Count)
system.cpu.exec_context.thread_0.numMatInsts            0                       # Number of matrix instructions (Count)
system.cpu.exec_context.thread_0.numIdleCycles            0                       # Number of idle cycles (Cycle)
system.cpu.exec_context.thread_0.numBusyCycles  65873082774                       # Number of busy cycles (Cycle)
system.cpu.exec_context.thread_0.notIdleFraction            1                       # Percentage of non-idle cycles (Ratio)
system.cpu.exec_context.thread_0.idleFraction            0                       # Percentage of idle cycles (Ratio)
system.cpu.executeStats0.numInsts                   0                       # Number of executed instructions (Count)
system.cpu.executeStats0.numNop                     0                       # Number of nop insts executed (Count)
system.cpu.executeStats0.numBranches                0                       # Number of branches executed (Count)
system.cpu.executeStats0.numLoadInsts               0                       # Number of load instructions executed (Count)
system.cpu.executeStats0.numStoreInsts      201428194                       # Number of stores executed (Count)
system.cpu.executeStats0.instRate                   0                       # Inst execution rate ((Count/Cycle))
system.cpu.executeStats0.numFpRegWrites             0                       # Number of times the floating registers were written (Count)
system.cpu.executeStats0.numIntAluAccesses    488509915                       # Number of integer alu accesses (Count)
system.cpu.executeStats0.numIntRegReads     581015423                       # Number of times the integer registers were read (Count)
system.cpu.executeStats0.numIntRegWrites    433455385                       # Number of times the integer registers were written (Count)
system.cpu.executeStats0.numMemRefs         201428194                       # Number of memory refs (Count)
system.cpu.executeStats0.numMiscRegReads    201428307                       # Number of times the Misc registers were read (Count)
system.cpu.executeStats0.numMiscRegWrites            8                       # Number of times the Misc registers were written (Count)
system.cpu.executeStats0.numVecAluAccesses            0                       # Number of vector alu accesses (Count)
system.cpu.executeStats0.numVecRegReads            44                       # Number of times the vector registers were read (Count)
system.cpu.executeStats0.numVecRegWrites           15                       # Number of times the vector registers were written (Count)
system.cpu.executeStats0.numDiscardedOps            0                       # Number of ops (including micro ops) which were discarded before commit (Count)
system.cpu.fetchStats0.numInsts             500000050                       # Number of instructions fetched (thread level) (Count)
system.cpu.fetchStats0.numOps               508660769                       # Number of ops (including micro ops) fetched (thread level) (Count)
system.cpu.fetchStats0.fetchRate             0.007590                       # Number of inst fetches per cycle ((Count/Cycle))
system.cpu.fetchStats0.numBranches           25343151                       # Number of branches fetched (Count)
system.cpu.fetchStats0.branchRate            0.000385                       # Number of branch fetches per cycle (Ratio)
system.cpu.fetchStats0.numFetchSuspends             0                       # Number of times Execute suspended instruction fetching (Count)
system.cpu.mmu.alignFaults                          0                       # Number of MMU faults due to alignment restrictions (Count)
system.cpu.mmu.prefetchFaults                       0                       # Number of MMU faults due to prefetch (Count)
system.cpu.mmu.domainFaults                         0                       # Number of MMU faults due to domain restrictions (Count)
system.cpu.mmu.permsFaults                          0                       # Number of MMU faults due to permissions restrictions (Count)
system.cpu.mmu.dtb.readHits                         0                       # Read hits (Count)
system.cpu.mmu.dtb.readMisses                       0                       # Read misses (Count)
system.cpu.mmu.dtb.writeHits                        0                       # Write hits (Count)
system.cpu.mmu.dtb.writeMisses                      0                       # Write misses (Count)
system.cpu.mmu.dtb.inserts                          0                       # Number of times an entry is inserted into the TLB (Count)
system.cpu.mmu.dtb.flushTlb                         0                       # Number of times a TLB invalidation was requested (Count)
system.cpu.mmu.dtb.flushedEntries                   0                       # Number of entries that have been flushed from TLB (Count)
system.cpu.mmu.dtb.readAccesses                     0                       # Read accesses (Count)
system.cpu.mmu.dtb.writeAccesses                    0                       # Write accesses (Count)
system.cpu.mmu.dtb.hits                             0                       # Total TLB (inst and data) hits (Count)
system.cpu.mmu.dtb.misses                           0                       # Total TLB (inst and data) misses (Count)
system.cpu.mmu.dtb.accesses                         0                       # Total TLB (inst and data) accesses (Count)
system.cpu.mmu.dtb_walker.walks                     0                       # Table walker walks requested (Count)
system.cpu.mmu.dtb_walker.requestOrigin_Requested::Data            0                       # Table walker requests started/completed, data/inst (Count)
system.cpu.mmu.dtb_walker.requestOrigin_Requested::Inst            0                       # Table walker requests started/completed, data/inst (Count)
system.cpu.mmu.dtb_walker.requestOrigin_Requested::total            0                       # Table walker requests started/completed, data/inst (Count)
system.cpu.mmu.dtb_walker.requestOrigin_Completed::Data            0                       # Table walker requests started/completed, data/inst (Count)
system.cpu.mmu.dtb_walker.requestOrigin_Completed::Inst            0                       # Table walker requests started/completed, data/inst (Count)
system.cpu.mmu.dtb_walker.requestOrigin_Completed::total            0                       # Table walker requests started/completed, data/inst (Count)
system.cpu.mmu.dtb_walker.requestOrigin::total            0                       # Table walker requests started/completed, data/inst (Count)
system.cpu.mmu.dtb_walker.power_state.pwrStateResidencyTicks::UNDEFINED 32936541387000                       # Cumulative time (in ticks) in various power states (Tick)
system.cpu.mmu.itb.instHits                         0                       # Inst hits (Count)
system.cpu.mmu.itb.instMisses                       0                       # Inst misses (Count)
system.cpu.mmu.itb.inserts                          0                       # Number of times an entry is inserted into the TLB (Count)
system.cpu.mmu.itb.flushTlb                         0                       # Number of times a TLB invalidation was requested (Count)
system.cpu.mmu.itb.flushedEntries                   0                       # Number of entries that have been flushed from TLB (Count)
system.cpu.mmu.itb.instAccesses                     0                       # Inst accesses (Count)
system.cpu.mmu.itb.hits                             0                       # Total TLB (inst and data) hits (Count)
system.cpu.mmu.itb.misses                           0                       # Total TLB (inst and data) misses (Count)
system.cpu.mmu.itb.accesses                         0                       # Total TLB (inst and data) accesses (Count)
system.cpu.mmu.itb_walker.walks                     0                       # Table walker walks requested (Count)
system.cpu.mmu.itb_walker.requestOrigin_Requested::Data            0                       # Table walker requests started/completed, data/inst (Count)
system.cpu.mmu.itb_walker.requestOrigin_Requested::Inst            0                       # Table walker requests started/completed, data/inst (Count)
system.cpu.mmu.itb_walker.requestOrigin_Requested::total            0                       # Table walker requests started/completed, data/inst (Count)
system.cpu.mmu.itb_walker.requestOrigin_Completed::Data            0                       # Table walker requests started/completed, data/inst (Count)
system.cpu.mmu.itb_walker.requestOrigin_Completed::Inst            0                       # Table walker requests started/completed, data/inst (Count)
system.cpu.mmu.itb_walker.requestOrigin_Completed::total            0                       # Table walker requests started/completed, data/inst (Count)
system.cpu.mmu.itb_walker.requestOrigin::total            0                       # Table walker requests started/completed, data/inst (Count)
system.cpu.mmu.itb_walker.power_state.pwrStateResidencyTicks::UNDEFINED 32936541387000                       # Cumulative time (in ticks) in various power states (Tick)
system.cpu.mmu.l2_shared.instHits                   0                       # Inst hits (Count)
system.cpu.mmu.l2_shared.instMisses                 0                       # Inst misses (Count)
system.cpu.mmu.l2_shared.inserts                    0                       # Number of times an entry is inserted into the TLB (Count)
system.cpu.mmu.l2_shared.flushTlb                   0                       # Number of times a TLB invalidation was requested (Count)
system.cpu.mmu.l2_shared.flushedEntries             0                       # Number of entries that have been flushed from TLB (Count)
system.cpu.mmu.l2_shared.instAccesses               0                       # Inst accesses (Count)
system.cpu.mmu.l2_shared.hits                       0                       # Total TLB (inst and data) hits (Count)
system.cpu.mmu.l2_shared.misses                     0                       # Total TLB (inst and data) misses (Count)
system.cpu.mmu.l2_shared.accesses                   0                       # Total TLB (inst and data) accesses (Count)
system.cpu.mmu.stage2_dtb.readHits                  0                       # Read hits (Count)
system.cpu.mmu.stage2_dtb.readMisses                0                       # Read misses (Count)
system.cpu.mmu.stage2_dtb.writeHits                 0                       # Write hits (Count)
system.cpu.mmu.stage2_dtb.writeMisses               0                       # Write misses (Count)
system.cpu.mmu.stage2_dtb.inserts                   0                       # Number of times an entry is inserted into the TLB (Count)
system.cpu.mmu.stage2_dtb.flushTlb                  0                       # Number of times a TLB invalidation was requested (Count)
system.cpu.mmu.stage2_dtb.flushedEntries            0                       # Number of entries that have been flushed from TLB (Count)
system.cpu.mmu.stage2_dtb.readAccesses              0                       # Read accesses (Count)
system.cpu.mmu.stage2_dtb.writeAccesses             0                       # Write accesses (Count)
system.cpu.mmu.stage2_dtb.hits                      0                       # Total TLB (inst and data) hits (Count)
system.cpu.mmu.stage2_dtb.misses                    0                       # Total TLB (inst and data) misses (Count)
system.cpu.mmu.stage2_dtb.accesses                  0                       # Total TLB (inst and data) accesses (Count)
system.cpu.mmu.stage2_dtb_walker.walks              0                       # Table walker walks requested (Count)
system.cpu.mmu.stage2_dtb_walker.requestOrigin_Requested::Data            0                       # Table walker requests started/completed, data/inst (Count)
system.cpu.mmu.stage2_dtb_walker.requestOrigin_Requested::Inst            0                       # Table walker requests started/completed, data/inst (Count)
system.cpu.mmu.stage2_dtb_walker.requestOrigin_Requested::total            0                       # Table walker requests started/completed, data/inst (Count)
system.cpu.mmu.stage2_dtb_walker.requestOrigin_Completed::Data            0                       # Table walker requests started/completed, data/inst (Count)
system.cpu.mmu.stage2_dtb_walker.requestOrigin_Completed::Inst            0                       # Table walker requests started/completed, data/inst (Count)
system.cpu.mmu.stage2_dtb_walker.requestOrigin_Completed::total            0                       # Table walker requests started/completed, data/inst (Count)
system.cpu.mmu.stage2_dtb_walker.requestOrigin::total            0                       # Table walker requests started/completed, data/inst (Count)
system.cpu.mmu.stage2_dtb_walker.power_state.pwrStateResidencyTicks::UNDEFINED 32936541387000                       # Cumulative time (in ticks) in various power states (Tick)
system.cpu.mmu.stage2_itb.instHits                  0                       # Inst hits (Count)
system.cpu.mmu.stage2_itb.instMisses                0                       # Inst misses (Count)
system.cpu.mmu.stage2_itb.inserts                   0                       # Number of times an entry is inserted into the TLB (Count)
system.cpu.mmu.stage2_itb.flushTlb                  0                       # Number of times a TLB invalidation was requested (Count)
system.cpu.mmu.stage2_itb.flushedEntries            0                       # Number of entries that have been flushed from TLB (Count)
system.cpu.mmu.stage2_itb.instAccesses              0                       # Inst accesses (Count)
system.cpu.mmu.stage2_itb.hits                      0                       # Total TLB (inst and data) hits (Count)
system.cpu.mmu.stage2_itb.misses                    0                       # Total TLB (inst and data) misses (Count)
system.cpu.mmu.stage2_itb.accesses                  0                       # Total TLB (inst and data) accesses (Count)
system.cpu.mmu.stage2_itb_walker.walks              0                       # Table walker walks requested (Count)
system.cpu.mmu.stage2_itb_walker.requestOrigin_Requested::Data            0                       # Table walker requests started/completed, data/inst (Count)
system.cpu.mmu.stage2_itb_walker.requestOrigin_Requested::Inst            0                       # Table walker requests started/completed, data/inst (Count)
system.cpu.mmu.stage2_itb_walker.requestOrigin_Requested::total            0                       # Table walker requests started/completed, data/inst (Count)
system.cpu.mmu.stage2_itb_walker.requestOrigin_Completed::Data            0                       # Table walker requests started/completed, data/inst (Count)
system.cpu.mmu.stage2_itb_walker.requestOrigin_Completed::Inst            0                       # Table walker requests started/completed, data/inst (Count)
system.cpu.mmu.stage2_itb_walker.requestOrigin_Completed::total            0                       # Table walker requests started/completed, data/inst (Count)
system.cpu.mmu.stage2_itb_walker.requestOrigin::total            0                       # Table walker requests started/completed, data/inst (Count)
system.cpu.mmu.stage2_itb_walker.power_state.pwrStateResidencyTicks::UNDEFINED 32936541387000                       # Cumulative time (in ticks) in various power states (Tick)
system.cpu.power_state.pwrStateResidencyTicks::ON 32936541387000                       # Cumulative time (in ticks) in various power states (Tick)
system.cpu.thread_0.numInsts                        0                       # Number of Instructions committed (Count)
system.cpu.thread_0.numOps                          0                       # Number of Ops committed (Count)
system.cpu.thread_0.numMemRefs                      0                       # Number of Memory References (Count)
system.cpu.workload.numSyscalls                     8                       # Number of system calls (Count)
system.mem_ctrl.avgPriority_cpu.inst::samples 550723654.00                       # Average QoS priority value for accepted requests (Count)
system.mem_ctrl.avgPriority_cpu.data::samples 147755291.00                       # Average QoS priority value for accepted requests (Count)
system.mem_ctrl.priorityMinLatency       0.000000017492                       # per QoS priority minimum request to response latency (Second)
system.mem_ctrl.priorityMaxLatency       0.046132743652                       # per QoS priority maximum request to response latency (Second)
system.mem_ctrl.numReadWriteTurnArounds        390981                       # Number of turnarounds from READ to WRITE (Count)
system.mem_ctrl.numWriteReadTurnArounds        390981                       # Number of turnarounds from WRITE to READ (Count)
system.mem_ctrl.numStayReadState           1428290445                       # Number of times bus staying in READ state (Count)
system.mem_ctrl.numStayWriteState             5871097                       # Number of times bus staying in WRITE state (Count)
system.mem_ctrl.readReqs                    716366786                       # Number of read requests accepted (Count)
system.mem_ctrl.writeReqs                    35784999                       # Number of write requests accepted (Count)
system.mem_ctrl.readBursts                  716366786                       # Number of controller read bursts, including those serviced by the write queue (Count)
system.mem_ctrl.writeBursts                  35784999                       # Number of controller write bursts, including those merged in the write queue (Count)
system.mem_ctrl.servicedByWrQ                24146993                       # Number of controller read bursts serviced by the write queue (Count)
system.mem_ctrl.mergedWrBursts               29525847                       # Number of controller write bursts merged with an existing one (Count)
system.mem_ctrl.neitherReadNorWriteReqs             0                       # Number of requests that are neither read nor write (Count)
system.mem_ctrl.avgRdQLen                        1.00                       # Average read queue length when enqueuing ((Count/Tick))
system.mem_ctrl.avgWrQLen                       57.72                       # Average write queue length when enqueuing ((Count/Tick))
system.mem_ctrl.numRdRetry                          0                       # Number of times read queue was full causing retry (Count)
system.mem_ctrl.numWrRetry                          0                       # Number of times write queue was full causing retry (Count)
system.mem_ctrl.readPktSize::0                     97                       # Read request sizes (log2) (Count)
system.mem_ctrl.readPktSize::1                     31                       # Read request sizes (log2) (Count)
system.mem_ctrl.readPktSize::2              716366428                       # Read request sizes (log2) (Count)
system.mem_ctrl.readPktSize::3                    230                       # Read request sizes (log2) (Count)
system.mem_ctrl.readPktSize::4                      0                       # Read request sizes (log2) (Count)
system.mem_ctrl.readPktSize::5                      0                       # Read request sizes (log2) (Count)
system.mem_ctrl.readPktSize::6                      0                       # Read request sizes (log2) (Count)
system.mem_ctrl.writePktSize::0                    21                       # Write request sizes (log2) (Count)
system.mem_ctrl.writePktSize::1                    10                       # Write request sizes (log2) (Count)
system.mem_ctrl.writePktSize::2              35784809                       # Write request sizes (log2) (Count)
system.mem_ctrl.writePktSize::3                   159                       # Write request sizes (log2) (Count)
system.mem_ctrl.writePktSize::4                     0                       # Write request sizes (log2) (Count)
system.mem_ctrl.writePktSize::5                     0                       # Write request sizes (log2) (Count)
system.mem_ctrl.writePktSize::6                     0                       # Write request sizes (log2) (Count)
system.mem_ctrl.rdQLenPdf::0                692219783                       # What read queue length does an incoming req see (Count)
system.mem_ctrl.rdQLenPdf::1                       10                       # What read queue length does an incoming req see (Count)
system.mem_ctrl.rdQLenPdf::2                        0                       # What read queue length does an incoming req see (Count)
system.mem_ctrl.rdQLenPdf::3                        0                       # What read queue length does an incoming req see (Count)
system.mem_ctrl.rdQLenPdf::4                        0                       # What read queue length does an incoming req see (Count)
system.mem_ctrl.rdQLenPdf::5                        0                       # What read queue length does an incoming req see (Count)
system.mem_ctrl.rdQLenPdf::6                        0                       # What read queue length does an incoming req see (Count)
system.mem_ctrl.rdQLenPdf::7                        0                       # What read queue length does an incoming req see (Count)
system.mem_ctrl.rdQLenPdf::8                        0                       # What read queue length does an incoming req see (Count)
system.mem_ctrl.rdQLenPdf::9                        0                       # What read queue length does an incoming req see (Count)
system.mem_ctrl.rdQLenPdf::10                       0                       # What read queue length does an incoming req see (Count)
system.mem_ctrl.rdQLenPdf::11                       0                       # What read queue length does an incoming req see (Count)
system.mem_ctrl.rdQLenPdf::12                       0                       # What read queue length does an incoming req see (Count)
system.mem_ctrl.rdQLenPdf::13                       0                       # What read queue length does an incoming req see (Count)
system.mem_ctrl.rdQLenPdf::14                       0                       # What read queue length does an incoming req see (Count)
system.mem_ctrl.rdQLenPdf::15                       0                       # What read queue length does an incoming req see (Count)
system.mem_ctrl.rdQLenPdf::16                       0                       # What read queue length does an incoming req see (Count)
system.mem_ctrl.rdQLenPdf::17                       0                       # What read queue length does an incoming req see (Count)
system.mem_ctrl.rdQLenPdf::18                       0                       # What read queue length does an incoming req see (Count)
system.mem_ctrl.rdQLenPdf::19                       0                       # What read queue length does an incoming req see (Count)
system.mem_ctrl.rdQLenPdf::20                       0                       # What read queue length does an incoming req see (Count)
system.mem_ctrl.rdQLenPdf::21                       0                       # What read queue length does an incoming req see (Count)
system.mem_ctrl.rdQLenPdf::22                       0                       # What read queue length does an incoming req see (Count)
system.mem_ctrl.rdQLenPdf::23                       0                       # What read queue length does an incoming req see (Count)
system.mem_ctrl.rdQLenPdf::24                       0                       # What read queue length does an incoming req see (Count)
system.mem_ctrl.rdQLenPdf::25                       0                       # What read queue length does an incoming req see (Count)
system.mem_ctrl.rdQLenPdf::26                       0                       # What read queue length does an incoming req see (Count)
system.mem_ctrl.rdQLenPdf::27                       0                       # What read queue length does an incoming req see (Count)
system.mem_ctrl.rdQLenPdf::28                       0                       # What read queue length does an incoming req see (Count)
system.mem_ctrl.rdQLenPdf::29                       0                       # What read queue length does an incoming req see (Count)
system.mem_ctrl.rdQLenPdf::30                       0                       # What read queue length does an incoming req see (Count)
system.mem_ctrl.rdQLenPdf::31                       0                       # What read queue length does an incoming req see (Count)
system.mem_ctrl.rdQLenPdf::32                       0                       # What read queue length does an incoming req see (Count)
system.mem_ctrl.rdQLenPdf::33                       0                       # What read queue length does an incoming req see (Count)
system.mem_ctrl.rdQLenPdf::34                       0                       # What read queue length does an incoming req see (Count)
system.mem_ctrl.rdQLenPdf::35                       0                       # What read queue length does an incoming req see (Count)
system.mem_ctrl.rdQLenPdf::36                       0                       # What read queue length does an incoming req see (Count)
system.mem_ctrl.rdQLenPdf::37                       0                       # What read queue length does an incoming req see (Count)
system.mem_ctrl.rdQLenPdf::38                       0                       # What read queue length does an incoming req see (Count)
system.mem_ctrl.rdQLenPdf::39                       0                       # What read queue length does an incoming req see (Count)
system.mem_ctrl.rdQLenPdf::40                       0                       # What read queue length does an incoming req see (Count)
system.mem_ctrl.rdQLenPdf::41                       0                       # What read queue length does an incoming req see (Count)
system.mem_ctrl.rdQLenPdf::42                       0                       # What read queue length does an incoming req see (Count)
system.mem_ctrl.rdQLenPdf::43                       0                       # What read queue length does an incoming req see (Count)
system.mem_ctrl.rdQLenPdf::44                       0                       # What read queue length does an incoming req see (Count)
system.mem_ctrl.rdQLenPdf::45                       0                       # What read queue length does an incoming req see (Count)
system.mem_ctrl.rdQLenPdf::46                       0                       # What read queue length does an incoming req see (Count)
system.mem_ctrl.rdQLenPdf::47                       0                       # What read queue length does an incoming req see (Count)
system.mem_ctrl.rdQLenPdf::48                       0                       # What read queue length does an incoming req see (Count)
system.mem_ctrl.rdQLenPdf::49                       0                       # What read queue length does an incoming req see (Count)
system.mem_ctrl.rdQLenPdf::50                       0                       # What read queue length does an incoming req see (Count)
system.mem_ctrl.rdQLenPdf::51                       0                       # What read queue length does an incoming req see (Count)
system.mem_ctrl.rdQLenPdf::52                       0                       # What read queue length does an incoming req see (Count)
system.mem_ctrl.rdQLenPdf::53                       0                       # What read queue length does an incoming req see (Count)
system.mem_ctrl.rdQLenPdf::54                       0                       # What read queue length does an incoming req see (Count)
system.mem_ctrl.rdQLenPdf::55                       0                       # What read queue length does an incoming req see (Count)
system.mem_ctrl.rdQLenPdf::56                       0                       # What read queue length does an incoming req see (Count)
system.mem_ctrl.rdQLenPdf::57                       0                       # What read queue length does an incoming req see (Count)
system.mem_ctrl.rdQLenPdf::58                       0                       # What read queue length does an incoming req see (Count)
system.mem_ctrl.rdQLenPdf::59                       0                       # What read queue length does an incoming req see (Count)
system.mem_ctrl.rdQLenPdf::60                       0                       # What read queue length does an incoming req see (Count)
system.mem_ctrl.rdQLenPdf::61                       0                       # What read queue length does an incoming req see (Count)
system.mem_ctrl.rdQLenPdf::62                       0                       # What read queue length does an incoming req see (Count)
system.mem_ctrl.rdQLenPdf::63                       0                       # What read queue length does an incoming req see (Count)
system.mem_ctrl.wrQLenPdf::0                        1                       # What write queue length does an incoming req see (Count)
system.mem_ctrl.wrQLenPdf::1                        1                       # What write queue length does an incoming req see (Count)
system.mem_ctrl.wrQLenPdf::2                        1                       # What write queue length does an incoming req see (Count)
system.mem_ctrl.wrQLenPdf::3                        1                       # What write queue length does an incoming req see (Count)
system.mem_ctrl.wrQLenPdf::4                        1                       # What write queue length does an incoming req see (Count)
system.mem_ctrl.wrQLenPdf::5                        1                       # What write queue length does an incoming req see (Count)
system.mem_ctrl.wrQLenPdf::6                        1                       # What write queue length does an incoming req see (Count)
system.mem_ctrl.wrQLenPdf::7                        1                       # What write queue length does an incoming req see (Count)
system.mem_ctrl.wrQLenPdf::8                        1                       # What write queue length does an incoming req see (Count)
system.mem_ctrl.wrQLenPdf::9                        1                       # What write queue length does an incoming req see (Count)
system.mem_ctrl.wrQLenPdf::10                       1                       # What write queue length does an incoming req see (Count)
system.mem_ctrl.wrQLenPdf::11                       1                       # What write queue length does an incoming req see (Count)
system.mem_ctrl.wrQLenPdf::12                       1                       # What write queue length does an incoming req see (Count)
system.mem_ctrl.wrQLenPdf::13                       1                       # What write queue length does an incoming req see (Count)
system.mem_ctrl.wrQLenPdf::14                       1                       # What write queue length does an incoming req see (Count)
system.mem_ctrl.wrQLenPdf::15                       1                       # What write queue length does an incoming req see (Count)
system.mem_ctrl.wrQLenPdf::16                       1                       # What write queue length does an incoming req see (Count)
system.mem_ctrl.wrQLenPdf::17                       1                       # What write queue length does an incoming req see (Count)
system.mem_ctrl.wrQLenPdf::18                       1                       # What write queue length does an incoming req see (Count)
system.mem_ctrl.wrQLenPdf::19                       1                       # What write queue length does an incoming req see (Count)
system.mem_ctrl.wrQLenPdf::20                       1                       # What write queue length does an incoming req see (Count)
system.mem_ctrl.wrQLenPdf::21                       1                       # What write queue length does an incoming req see (Count)
system.mem_ctrl.wrQLenPdf::22                       1                       # What write queue length does an incoming req see (Count)
system.mem_ctrl.wrQLenPdf::23                       1                       # What write queue length does an incoming req see (Count)
system.mem_ctrl.wrQLenPdf::24                       1                       # What write queue length does an incoming req see (Count)
system.mem_ctrl.wrQLenPdf::25                       1                       # What write queue length does an incoming req see (Count)
system.mem_ctrl.wrQLenPdf::26                       1                       # What write queue length does an incoming req see (Count)
system.mem_ctrl.wrQLenPdf::27                       1                       # What write queue length does an incoming req see (Count)
system.mem_ctrl.wrQLenPdf::28                       1                       # What write queue length does an incoming req see (Count)
system.mem_ctrl.wrQLenPdf::29                       1                       # What write queue length does an incoming req see (Count)
system.mem_ctrl.wrQLenPdf::30                       1                       # What write queue length does an incoming req see (Count)
system.mem_ctrl.wrQLenPdf::31                       1                       # What write queue length does an incoming req see (Count)
system.mem_ctrl.wrQLenPdf::32                       1                       # What write queue length does an incoming req see (Count)
system.mem_ctrl.wrQLenPdf::33                       1                       # What write queue length does an incoming req see (Count)
system.mem_ctrl.wrQLenPdf::34                       1                       # What write queue length does an incoming req see (Count)
system.mem_ctrl.wrQLenPdf::35                       1                       # What write queue length does an incoming req see (Count)
system.mem_ctrl.wrQLenPdf::36                       1                       # What write queue length does an incoming req see (Count)
system.mem_ctrl.wrQLenPdf::37                       1                       # What write queue length does an incoming req see (Count)
system.mem_ctrl.wrQLenPdf::38                       1                       # What write queue length does an incoming req see (Count)
system.mem_ctrl.wrQLenPdf::39                       1                       # What write queue length does an incoming req see (Count)
system.mem_ctrl.wrQLenPdf::40                       1                       # What write queue length does an incoming req see (Count)
system.mem_ctrl.wrQLenPdf::41                       1                       # What write queue length does an incoming req see (Count)
system.mem_ctrl.wrQLenPdf::42                       1                       # What write queue length does an incoming req see (Count)
system.mem_ctrl.wrQLenPdf::43                       1                       # What write queue length does an incoming req see (Count)
system.mem_ctrl.wrQLenPdf::44                       1                       # What write queue length does an incoming req see (Count)
system.mem_ctrl.wrQLenPdf::45                       1                       # What write queue length does an incoming req see (Count)
system.mem_ctrl.wrQLenPdf::46                       1                       # What write queue length does an incoming req see (Count)
system.mem_ctrl.wrQLenPdf::47                    1557                       # What write queue length does an incoming req see (Count)
system.mem_ctrl.wrQLenPdf::48                    1848                       # What write queue length does an incoming req see (Count)
system.mem_ctrl.wrQLenPdf::49                  390982                       # What write queue length does an incoming req see (Count)
system.mem_ctrl.wrQLenPdf::50                  390982                       # What write queue length does an incoming req see (Count)
system.mem_ctrl.wrQLenPdf::51                  390982                       # What write queue length does an incoming req see (Count)
system.mem_ctrl.wrQLenPdf::52                  390982                       # What write queue length does an incoming req see (Count)
system.mem_ctrl.wrQLenPdf::53                  390981                       # What write queue length does an incoming req see (Count)
system.mem_ctrl.wrQLenPdf::54                  390981                       # What write queue length does an incoming req see (Count)
system.mem_ctrl.wrQLenPdf::55                  390981                       # What write queue length does an incoming req see (Count)
system.mem_ctrl.wrQLenPdf::56                  390981                       # What write queue length does an incoming req see (Count)
system.mem_ctrl.wrQLenPdf::57                  390981                       # What write queue length does an incoming req see (Count)
system.mem_ctrl.wrQLenPdf::58                  390981                       # What write queue length does an incoming req see (Count)
system.mem_ctrl.wrQLenPdf::59                  390981                       # What write queue length does an incoming req see (Count)
system.mem_ctrl.wrQLenPdf::60                  390981                       # What write queue length does an incoming req see (Count)
system.mem_ctrl.wrQLenPdf::61                  390981                       # What write queue length does an incoming req see (Count)
system.mem_ctrl.wrQLenPdf::62                  390981                       # What write queue length does an incoming req see (Count)
system.mem_ctrl.wrQLenPdf::63                  390981                       # What write queue length does an incoming req see (Count)
system.mem_ctrl.wrQLenPdf::64                  390981                       # What write queue length does an incoming req see (Count)
system.mem_ctrl.wrQLenPdf::65                       0                       # What write queue length does an incoming req see (Count)
system.mem_ctrl.wrQLenPdf::66                       0                       # What write queue length does an incoming req see (Count)
system.mem_ctrl.wrQLenPdf::67                       0                       # What write queue length does an incoming req see (Count)
system.mem_ctrl.wrQLenPdf::68                       0                       # What write queue length does an incoming req see (Count)
system.mem_ctrl.wrQLenPdf::69                       0                       # What write queue length does an incoming req see (Count)
system.mem_ctrl.wrQLenPdf::70                       0                       # What write queue length does an incoming req see (Count)
system.mem_ctrl.wrQLenPdf::71                       0                       # What write queue length does an incoming req see (Count)
system.mem_ctrl.wrQLenPdf::72                       0                       # What write queue length does an incoming req see (Count)
system.mem_ctrl.wrQLenPdf::73                       0                       # What write queue length does an incoming req see (Count)
system.mem_ctrl.wrQLenPdf::74                       0                       # What write queue length does an incoming req see (Count)
system.mem_ctrl.wrQLenPdf::75                       0                       # What write queue length does an incoming req see (Count)
system.mem_ctrl.wrQLenPdf::76                       0                       # What write queue length does an incoming req see (Count)
system.mem_ctrl.wrQLenPdf::77                       0                       # What write queue length does an incoming req see (Count)
system.mem_ctrl.wrQLenPdf::78                       0                       # What write queue length does an incoming req see (Count)
system.mem_ctrl.wrQLenPdf::79                       0                       # What write queue length does an incoming req see (Count)
system.mem_ctrl.wrQLenPdf::80                       0                       # What write queue length does an incoming req see (Count)
system.mem_ctrl.wrQLenPdf::81                       0                       # What write queue length does an incoming req see (Count)
system.mem_ctrl.wrQLenPdf::82                       0                       # What write queue length does an incoming req see (Count)
system.mem_ctrl.wrQLenPdf::83                       0                       # What write queue length does an incoming req see (Count)
system.mem_ctrl.wrQLenPdf::84                       0                       # What write queue length does an incoming req see (Count)
system.mem_ctrl.wrQLenPdf::85                       0                       # What write queue length does an incoming req see (Count)
system.mem_ctrl.wrQLenPdf::86                       0                       # What write queue length does an incoming req see (Count)
system.mem_ctrl.wrQLenPdf::87                       0                       # What write queue length does an incoming req see (Count)
system.mem_ctrl.wrQLenPdf::88                       0                       # What write queue length does an incoming req see (Count)
system.mem_ctrl.wrQLenPdf::89                       0                       # What write queue length does an incoming req see (Count)
system.mem_ctrl.wrQLenPdf::90                       0                       # What write queue length does an incoming req see (Count)
system.mem_ctrl.wrQLenPdf::91                       0                       # What write queue length does an incoming req see (Count)
system.mem_ctrl.wrQLenPdf::92                       0                       # What write queue length does an incoming req see (Count)
system.mem_ctrl.wrQLenPdf::93                       0                       # What write queue length does an incoming req see (Count)
system.mem_ctrl.wrQLenPdf::94                       0                       # What write queue length does an incoming req see (Count)
system.mem_ctrl.wrQLenPdf::95                       0                       # What write queue length does an incoming req see (Count)
system.mem_ctrl.wrQLenPdf::96                       0                       # What write queue length does an incoming req see (Count)
system.mem_ctrl.wrQLenPdf::97                       0                       # What write queue length does an incoming req see (Count)
system.mem_ctrl.wrQLenPdf::98                       0                       # What write queue length does an incoming req see (Count)
system.mem_ctrl.wrQLenPdf::99                       0                       # What write queue length does an incoming req see (Count)
system.mem_ctrl.wrQLenPdf::100                      0                       # What write queue length does an incoming req see (Count)
system.mem_ctrl.wrQLenPdf::101                      0                       # What write queue length does an incoming req see (Count)
system.mem_ctrl.wrQLenPdf::102                      0                       # What write queue length does an incoming req see (Count)
system.mem_ctrl.wrQLenPdf::103                      0                       # What write queue length does an incoming req see (Count)
system.mem_ctrl.wrQLenPdf::104                      0                       # What write queue length does an incoming req see (Count)
system.mem_ctrl.wrQLenPdf::105                      0                       # What write queue length does an incoming req see (Count)
system.mem_ctrl.wrQLenPdf::106                      0                       # What write queue length does an incoming req see (Count)
system.mem_ctrl.wrQLenPdf::107                      0                       # What write queue length does an incoming req see (Count)
system.mem_ctrl.wrQLenPdf::108                      0                       # What write queue length does an incoming req see (Count)
system.mem_ctrl.wrQLenPdf::109                      0                       # What write queue length does an incoming req see (Count)
system.mem_ctrl.wrQLenPdf::110                      0                       # What write queue length does an incoming req see (Count)
system.mem_ctrl.wrQLenPdf::111                      0                       # What write queue length does an incoming req see (Count)
system.mem_ctrl.wrQLenPdf::112                      0                       # What write queue length does an incoming req see (Count)
system.mem_ctrl.wrQLenPdf::113                      0                       # What write queue length does an incoming req see (Count)
system.mem_ctrl.wrQLenPdf::114                      0                       # What write queue length does an incoming req see (Count)
system.mem_ctrl.wrQLenPdf::115                      0                       # What write queue length does an incoming req see (Count)
system.mem_ctrl.wrQLenPdf::116                      0                       # What write queue length does an incoming req see (Count)
system.mem_ctrl.wrQLenPdf::117                      0                       # What write queue length does an incoming req see (Count)
system.mem_ctrl.wrQLenPdf::118                      0                       # What write queue length does an incoming req see (Count)
system.mem_ctrl.wrQLenPdf::119                      0                       # What write queue length does an incoming req see (Count)
system.mem_ctrl.wrQLenPdf::120                      0                       # What write queue length does an incoming req see (Count)
system.mem_ctrl.wrQLenPdf::121                      0                       # What write queue length does an incoming req see (Count)
system.mem_ctrl.wrQLenPdf::122                      0                       # What write queue length does an incoming req see (Count)
system.mem_ctrl.wrQLenPdf::123                      0                       # What write queue length does an incoming req see (Count)
system.mem_ctrl.wrQLenPdf::124                      0                       # What write queue length does an incoming req see (Count)
system.mem_ctrl.wrQLenPdf::125                      0                       # What write queue length does an incoming req see (Count)
system.mem_ctrl.wrQLenPdf::126                      0                       # What write queue length does an incoming req see (Count)
system.mem_ctrl.wrQLenPdf::127                      0                       # What write queue length does an incoming req see (Count)
system.mem_ctrl.rdPerTurnAround::samples       390981                       # Reads before turning the bus around for writes (Count)
system.mem_ctrl.rdPerTurnAround::mean     1770.468030                       # Reads before turning the bus around for writes (Count)
system.mem_ctrl.rdPerTurnAround::gmean    1700.934444                       # Reads before turning the bus around for writes (Count)
system.mem_ctrl.rdPerTurnAround::stdev     541.286091                       # Reads before turning the bus around for writes (Count)
system.mem_ctrl.rdPerTurnAround::896-1023          746      0.19%      0.19% # Reads before turning the bus around for writes (Count)
system.mem_ctrl.rdPerTurnAround::1024-1151        11028      2.82%      3.01% # Reads before turning the bus around for writes (Count)
system.mem_ctrl.rdPerTurnAround::1152-1279        42092     10.77%     13.78% # Reads before turning the bus around for writes (Count)
system.mem_ctrl.rdPerTurnAround::1280-1407        61148     15.64%     29.42% # Reads before turning the bus around for writes (Count)
system.mem_ctrl.rdPerTurnAround::1408-1535        53712     13.74%     43.15% # Reads before turning the bus around for writes (Count)
system.mem_ctrl.rdPerTurnAround::1536-1663        42568     10.89%     54.04% # Reads before turning the bus around for writes (Count)
system.mem_ctrl.rdPerTurnAround::1664-1791        33997      8.70%     62.74% # Reads before turning the bus around for writes (Count)
system.mem_ctrl.rdPerTurnAround::1792-1919        27712      7.09%     69.83% # Reads before turning the bus around for writes (Count)
system.mem_ctrl.rdPerTurnAround::1920-2047        23054      5.90%     75.72% # Reads before turning the bus around for writes (Count)
system.mem_ctrl.rdPerTurnAround::2048-2175        19288      4.93%     80.65% # Reads before turning the bus around for writes (Count)
system.mem_ctrl.rdPerTurnAround::2176-2303        15812      4.04%     84.70% # Reads before turning the bus around for writes (Count)
system.mem_ctrl.rdPerTurnAround::2304-2431        13008      3.33%     88.03% # Reads before turning the bus around for writes (Count)
system.mem_ctrl.rdPerTurnAround::2432-2559        10339      2.64%     90.67% # Reads before turning the bus around for writes (Count)
system.mem_ctrl.rdPerTurnAround::2560-2687         8229      2.10%     92.78% # Reads before turning the bus around for writes (Count)
system.mem_ctrl.rdPerTurnAround::2688-2815         6600      1.69%     94.46% # Reads before turning the bus around for writes (Count)
system.mem_ctrl.rdPerTurnAround::2816-2943         5256      1.34%     95.81% # Reads before turning the bus around for writes (Count)
system.mem_ctrl.rdPerTurnAround::2944-3071         4079      1.04%     96.85% # Reads before turning the bus around for writes (Count)
system.mem_ctrl.rdPerTurnAround::3072-3199         3149      0.81%     97.66% # Reads before turning the bus around for writes (Count)
system.mem_ctrl.rdPerTurnAround::3200-3327         2442      0.62%     98.28% # Reads before turning the bus around for writes (Count)
system.mem_ctrl.rdPerTurnAround::3328-3455         1799      0.46%     98.74% # Reads before turning the bus around for writes (Count)
system.mem_ctrl.rdPerTurnAround::3456-3583         1381      0.35%     99.09% # Reads before turning the bus around for writes (Count)
system.mem_ctrl.rdPerTurnAround::3584-3711          968      0.25%     99.34% # Reads before turning the bus around for writes (Count)
system.mem_ctrl.rdPerTurnAround::3712-3839          723      0.18%     99.53% # Reads before turning the bus around for writes (Count)
system.mem_ctrl.rdPerTurnAround::3840-3967          542      0.14%     99.67% # Reads before turning the bus around for writes (Count)
system.mem_ctrl.rdPerTurnAround::3968-4095          395      0.10%     99.77% # Reads before turning the bus around for writes (Count)
system.mem_ctrl.rdPerTurnAround::4096-4223          288      0.07%     99.84% # Reads before turning the bus around for writes (Count)
system.mem_ctrl.rdPerTurnAround::4224-4351          189      0.05%     99.89% # Reads before turning the bus around for writes (Count)
system.mem_ctrl.rdPerTurnAround::4352-4479          143      0.04%     99.92% # Reads before turning the bus around for writes (Count)
system.mem_ctrl.rdPerTurnAround::4480-4607          103      0.03%     99.95% # Reads before turning the bus around for writes (Count)
system.mem_ctrl.rdPerTurnAround::4608-4735           74      0.02%     99.97% # Reads before turning the bus around for writes (Count)
system.mem_ctrl.rdPerTurnAround::4736-4863           43      0.01%     99.98% # Reads before turning the bus around for writes (Count)
system.mem_ctrl.rdPerTurnAround::4864-4991           27      0.01%     99.99% # Reads before turning the bus around for writes (Count)
system.mem_ctrl.rdPerTurnAround::4992-5119           10      0.00%     99.99% # Reads before turning the bus around for writes (Count)
system.mem_ctrl.rdPerTurnAround::5120-5247           11      0.00%     99.99% # Reads before turning the bus around for writes (Count)
system.mem_ctrl.rdPerTurnAround::5248-5375           10      0.00%    100.00% # Reads before turning the bus around for writes (Count)
system.mem_ctrl.rdPerTurnAround::5376-5503            7      0.00%    100.00% # Reads before turning the bus around for writes (Count)
system.mem_ctrl.rdPerTurnAround::5504-5631            4      0.00%    100.00% # Reads before turning the bus around for writes (Count)
system.mem_ctrl.rdPerTurnAround::5632-5759            2      0.00%    100.00% # Reads before turning the bus around for writes (Count)
system.mem_ctrl.rdPerTurnAround::5760-5887            1      0.00%    100.00% # Reads before turning the bus around for writes (Count)
system.mem_ctrl.rdPerTurnAround::5888-6015            2      0.00%    100.00% # Reads before turning the bus around for writes (Count)
system.mem_ctrl.rdPerTurnAround::total         390981                       # Reads before turning the bus around for writes (Count)
system.mem_ctrl.wrPerTurnAround::samples       390981                       # Writes before turning the bus around for reads (Count)
system.mem_ctrl.wrPerTurnAround::mean       16.008704                       # Writes before turning the bus around for reads (Count)
system.mem_ctrl.wrPerTurnAround::gmean      16.008224                       # Writes before turning the bus around for reads (Count)
system.mem_ctrl.wrPerTurnAround::stdev       0.128792                       # Writes before turning the bus around for reads (Count)
system.mem_ctrl.wrPerTurnAround::16            389134     99.53%     99.53% # Writes before turning the bus around for reads (Count)
system.mem_ctrl.wrPerTurnAround::17               291      0.07%     99.60% # Writes before turning the bus around for reads (Count)
system.mem_ctrl.wrPerTurnAround::18              1556      0.40%    100.00% # Writes before turning the bus around for reads (Count)
system.mem_ctrl.wrPerTurnAround::total         390981                       # Writes before turning the bus around for reads (Count)
system.mem_ctrl.bytesReadWrQ               1545407552                       # Total number of bytes read from write queue (Byte)
system.mem_ctrl.bytesReadSys               2865467711                       # Total read bytes from the system interface side (Byte)
system.mem_ctrl.bytesWrittenSys             143140549                       # Total written bytes from the system interface side (Byte)
system.mem_ctrl.avgRdBWSys               86999654.19353338                       # Average system read bandwidth in Byte/s ((Byte/Second))
system.mem_ctrl.avgWrBWSys               4345949.60406187                       # Average system write bandwidth in Byte/s ((Byte/Second))
system.mem_ctrl.totGap                   32936541316000                       # Total gap between requests (Tick)
system.mem_ctrl.avgGap                       43789.75                       # Average gap between requests ((Tick/Count))
system.mem_ctrl.requestorReadBytes::cpu.inst   2202894616                       # Per-requestor bytes read from memory (Byte)
system.mem_ctrl.requestorReadBytes::cpu.data    565985123                       # Per-requestor bytes read from memory (Byte)
system.mem_ctrl.requestorWriteBytes::cpu.data     25036398                       # Per-requestor bytes write to memory (Byte)
system.mem_ctrl.requestorReadRate::cpu.inst 66882997.522911712527                       # Per-requestor bytes read from memory rate ((Byte/Second))
system.mem_ctrl.requestorReadRate::cpu.data 17184109.173751723021                       # Per-requestor bytes read from memory rate ((Byte/Second))
system.mem_ctrl.requestorWriteRate::cpu.data 760140.468479238334                       # Per-requestor bytes write to memory rate ((Byte/Second))
system.mem_ctrl.requestorReadAccesses::cpu.inst    550723654                       # Per-requestor read serviced memory accesses (Count)
system.mem_ctrl.requestorReadAccesses::cpu.data    165643132                       # Per-requestor read serviced memory accesses (Count)
system.mem_ctrl.requestorWriteAccesses::cpu.data     35784999                       # Per-requestor write serviced memory accesses (Count)
system.mem_ctrl.requestorReadTotalLat::cpu.inst 11368101359872                       # Per-requestor read total memory access latency (Tick)
system.mem_ctrl.requestorReadTotalLat::cpu.data 3317767287072                       # Per-requestor read total memory access latency (Tick)
system.mem_ctrl.requestorWriteTotalLat::cpu.data 1893486750480526                       # Per-requestor write total memory access latency (Tick)
system.mem_ctrl.requestorReadAvgLat::cpu.inst     20642.12                       # Per-requestor read average memory access latency ((Tick/Count))
system.mem_ctrl.requestorReadAvgLat::cpu.data     20029.61                       # Per-requestor read average memory access latency ((Tick/Count))
system.mem_ctrl.requestorWriteAvgLat::cpu.data  52912863.03                       # Per-requestor write average memory access latency ((Tick/Count))
system.mem_ctrl.dram.bytesRead::cpu.inst   2202894612                       # Number of bytes read from this memory (Byte)
system.mem_ctrl.dram.bytesRead::cpu.data    662573095                       # Number of bytes read from this memory (Byte)
system.mem_ctrl.dram.bytesRead::total      2865467707                       # Number of bytes read from this memory (Byte)
system.mem_ctrl.dram.bytesInstRead::cpu.inst   2202894612                       # Number of instructions bytes read from this memory (Byte)
system.mem_ctrl.dram.bytesInstRead::total   2202894612                       # Number of instructions bytes read from this memory (Byte)
system.mem_ctrl.dram.bytesWritten::cpu.data    143140549                       # Number of bytes written to this memory (Byte)
system.mem_ctrl.dram.bytesWritten::total    143140549                       # Number of bytes written to this memory (Byte)
system.mem_ctrl.dram.numReads::cpu.inst     550723653                       # Number of read requests responded to by this memory (Count)
system.mem_ctrl.dram.numReads::cpu.data     165643132                       # Number of read requests responded to by this memory (Count)
system.mem_ctrl.dram.numReads::total        716366785                       # Number of read requests responded to by this memory (Count)
system.mem_ctrl.dram.numWrites::cpu.data     35784999                       # Number of write requests responded to by this memory (Count)
system.mem_ctrl.dram.numWrites::total        35784999                       # Number of write requests responded to by this memory (Count)
system.mem_ctrl.dram.bwRead::cpu.inst        66882997                       # Total read bandwidth from this memory ((Byte/Second))
system.mem_ctrl.dram.bwRead::cpu.data        20116657                       # Total read bandwidth from this memory ((Byte/Second))
system.mem_ctrl.dram.bwRead::total           86999654                       # Total read bandwidth from this memory ((Byte/Second))
system.mem_ctrl.dram.bwInstRead::cpu.inst     66882997                       # Instruction read bandwidth from this memory ((Byte/Second))
system.mem_ctrl.dram.bwInstRead::total       66882997                       # Instruction read bandwidth from this memory ((Byte/Second))
system.mem_ctrl.dram.bwWrite::cpu.data        4345950                       # Write bandwidth from this memory ((Byte/Second))
system.mem_ctrl.dram.bwWrite::total           4345950                       # Write bandwidth from this memory ((Byte/Second))
system.mem_ctrl.dram.bwTotal::cpu.inst       66882997                       # Total bandwidth to/from this memory ((Byte/Second))
system.mem_ctrl.dram.bwTotal::cpu.data       24462606                       # Total bandwidth to/from this memory ((Byte/Second))
system.mem_ctrl.dram.bwTotal::total          91345604                       # Total bandwidth to/from this memory ((Byte/Second))
system.mem_ctrl.dram.readBursts             692219793                       # Number of DRAM read bursts (Count)
system.mem_ctrl.dram.writeBursts              6259099                       # Number of DRAM write bursts (Count)
system.mem_ctrl.dram.perBankRdBursts::0     551884945                       # Per bank write bursts (Count)
system.mem_ctrl.dram.perBankRdBursts::1       1172096                       # Per bank write bursts (Count)
system.mem_ctrl.dram.perBankRdBursts::2       1174655                       # Per bank write bursts (Count)
system.mem_ctrl.dram.perBankRdBursts::3       1171843                       # Per bank write bursts (Count)
system.mem_ctrl.dram.perBankRdBursts::4       1169478                       # Per bank write bursts (Count)
system.mem_ctrl.dram.perBankRdBursts::5       1169445                       # Per bank write bursts (Count)
system.mem_ctrl.dram.perBankRdBursts::6       1167391                       # Per bank write bursts (Count)
system.mem_ctrl.dram.perBankRdBursts::7       1162054                       # Per bank write bursts (Count)
system.mem_ctrl.dram.perBankRdBursts::8       1153118                       # Per bank write bursts (Count)
system.mem_ctrl.dram.perBankRdBursts::9       1154333                       # Per bank write bursts (Count)
system.mem_ctrl.dram.perBankRdBursts::10      2019264                       # Per bank write bursts (Count)
system.mem_ctrl.dram.perBankRdBursts::11      1173087                       # Per bank write bursts (Count)
system.mem_ctrl.dram.perBankRdBursts::12      1173037                       # Per bank write bursts (Count)
system.mem_ctrl.dram.perBankRdBursts::13      1172395                       # Per bank write bursts (Count)
system.mem_ctrl.dram.perBankRdBursts::14      1172359                       # Per bank write bursts (Count)
system.mem_ctrl.dram.perBankRdBursts::15      1172107                       # Per bank write bursts (Count)
system.mem_ctrl.dram.perBankRdBursts::16      1170163                       # Per bank write bursts (Count)
system.mem_ctrl.dram.perBankRdBursts::17      1174447                       # Per bank write bursts (Count)
system.mem_ctrl.dram.perBankRdBursts::18      1167518                       # Per bank write bursts (Count)
system.mem_ctrl.dram.perBankRdBursts::19      1170279                       # Per bank write bursts (Count)
system.mem_ctrl.dram.perBankRdBursts::20      1168746                       # Per bank write bursts (Count)
system.mem_ctrl.dram.perBankRdBursts::21    104399817                       # Per bank write bursts (Count)
system.mem_ctrl.dram.perBankRdBursts::22      1169585                       # Per bank write bursts (Count)
system.mem_ctrl.dram.perBankRdBursts::23      1169810                       # Per bank write bursts (Count)
system.mem_ctrl.dram.perBankRdBursts::24      1170786                       # Per bank write bursts (Count)
system.mem_ctrl.dram.perBankRdBursts::25      1171222                       # Per bank write bursts (Count)
system.mem_ctrl.dram.perBankRdBursts::26      1170962                       # Per bank write bursts (Count)
system.mem_ctrl.dram.perBankRdBursts::27      1171718                       # Per bank write bursts (Count)
system.mem_ctrl.dram.perBankRdBursts::28      1174048                       # Per bank write bursts (Count)
system.mem_ctrl.dram.perBankRdBursts::29      1168943                       # Per bank write bursts (Count)
system.mem_ctrl.dram.perBankRdBursts::30      1171112                       # Per bank write bursts (Count)
system.mem_ctrl.dram.perBankRdBursts::31      1169030                       # Per bank write bursts (Count)
system.mem_ctrl.dram.perBankWrBursts::0        173018                       # Per bank write bursts (Count)
system.mem_ctrl.dram.perBankWrBursts::1        174268                       # Per bank write bursts (Count)
system.mem_ctrl.dram.perBankWrBursts::2        174463                       # Per bank write bursts (Count)
system.mem_ctrl.dram.perBankWrBursts::3        173303                       # Per bank write bursts (Count)
system.mem_ctrl.dram.perBankWrBursts::4        170518                       # Per bank write bursts (Count)
system.mem_ctrl.dram.perBankWrBursts::5        170877                       # Per bank write bursts (Count)
system.mem_ctrl.dram.perBankWrBursts::6        171223                       # Per bank write bursts (Count)
system.mem_ctrl.dram.perBankWrBursts::7        171592                       # Per bank write bursts (Count)
system.mem_ctrl.dram.perBankWrBursts::8        171698                       # Per bank write bursts (Count)
system.mem_ctrl.dram.perBankWrBursts::9        170989                       # Per bank write bursts (Count)
system.mem_ctrl.dram.perBankWrBursts::10       171455                       # Per bank write bursts (Count)
system.mem_ctrl.dram.perBankWrBursts::11       175042                       # Per bank write bursts (Count)
system.mem_ctrl.dram.perBankWrBursts::12       174455                       # Per bank write bursts (Count)
system.mem_ctrl.dram.perBankWrBursts::13       174972                       # Per bank write bursts (Count)
system.mem_ctrl.dram.perBankWrBursts::14       175349                       # Per bank write bursts (Count)
system.mem_ctrl.dram.perBankWrBursts::15       174522                       # Per bank write bursts (Count)
system.mem_ctrl.dram.perBankWrBursts::16       174421                       # Per bank write bursts (Count)
system.mem_ctrl.dram.perBankWrBursts::17       174698                       # Per bank write bursts (Count)
system.mem_ctrl.dram.perBankWrBursts::18       174041                       # Per bank write bursts (Count)
system.mem_ctrl.dram.perBankWrBursts::19       174990                       # Per bank write bursts (Count)
system.mem_ctrl.dram.perBankWrBursts::20       174783                       # Per bank write bursts (Count)
system.mem_ctrl.dram.perBankWrBursts::21       876450                       # Per bank write bursts (Count)
system.mem_ctrl.dram.perBankWrBursts::22       174514                       # Per bank write bursts (Count)
system.mem_ctrl.dram.perBankWrBursts::23       174016                       # Per bank write bursts (Count)
system.mem_ctrl.dram.perBankWrBursts::24       174135                       # Per bank write bursts (Count)
system.mem_ctrl.dram.perBankWrBursts::25       174036                       # Per bank write bursts (Count)
system.mem_ctrl.dram.perBankWrBursts::26       174247                       # Per bank write bursts (Count)
system.mem_ctrl.dram.perBankWrBursts::27       173989                       # Per bank write bursts (Count)
system.mem_ctrl.dram.perBankWrBursts::28       174368                       # Per bank write bursts (Count)
system.mem_ctrl.dram.perBankWrBursts::29       174077                       # Per bank write bursts (Count)
system.mem_ctrl.dram.perBankWrBursts::30       174409                       # Per bank write bursts (Count)
system.mem_ctrl.dram.perBankWrBursts::31       174181                       # Per bank write bursts (Count)
system.mem_ctrl.dram.totQLat             2577560027788                       # Total ticks spent queuing (Tick)
system.mem_ctrl.dram.totBusLat           2306476350276                       # Total ticks spent in databus transfers (Tick)
system.mem_ctrl.dram.totMemAccLat        14685868646944                       # Total ticks spent from burst creation until serviced by the DRAM (Tick)
system.mem_ctrl.dram.avgQLat                  3723.62                       # Average queueing delay per DRAM burst ((Tick/Count))
system.mem_ctrl.dram.avgBusLat                3332.00                       # Average bus latency per DRAM burst ((Tick/Count))
system.mem_ctrl.dram.avgMemAccLat            21215.62                       # Average memory access latency per DRAM burst ((Tick/Count))
system.mem_ctrl.dram.readRowHits            620712658                       # Number of row buffer hits during reads (Count)
system.mem_ctrl.dram.writeRowHits             1129372                       # Number of row buffer hits during writes (Count)
system.mem_ctrl.dram.readRowHitRate             89.67                       # Row buffer hit rate for reads (Ratio)
system.mem_ctrl.dram.writeRowHitRate            18.04                       # Row buffer hit rate for writes (Ratio)
system.mem_ctrl.dram.bytesPerActivate::samples     76636859                       # Bytes accessed per row activation (Byte)
system.mem_ctrl.dram.bytesPerActivate::mean   583.304802                       # Bytes accessed per row activation (Byte)
system.mem_ctrl.dram.bytesPerActivate::gmean   336.147544                       # Bytes accessed per row activation (Byte)
system.mem_ctrl.dram.bytesPerActivate::stdev   444.645419                       # Bytes accessed per row activation (Byte)
system.mem_ctrl.dram.bytesPerActivate::0-127     21469874     28.02%     28.02% # Bytes accessed per row activation (Byte)
system.mem_ctrl.dram.bytesPerActivate::128-255     10389245     13.56%     41.57% # Bytes accessed per row activation (Byte)
system.mem_ctrl.dram.bytesPerActivate::256-383      2398175      3.13%     44.70% # Bytes accessed per row activation (Byte)
system.mem_ctrl.dram.bytesPerActivate::384-511      1628002      2.12%     46.83% # Bytes accessed per row activation (Byte)
system.mem_ctrl.dram.bytesPerActivate::512-639      1528710      1.99%     48.82% # Bytes accessed per row activation (Byte)
system.mem_ctrl.dram.bytesPerActivate::640-767      1111996      1.45%     50.27% # Bytes accessed per row activation (Byte)
system.mem_ctrl.dram.bytesPerActivate::768-895       943490      1.23%     51.50% # Bytes accessed per row activation (Byte)
system.mem_ctrl.dram.bytesPerActivate::896-1023       757046      0.99%     52.49% # Bytes accessed per row activation (Byte)
system.mem_ctrl.dram.bytesPerActivate::1024-1151     36410321     47.51%    100.00% # Bytes accessed per row activation (Byte)
system.mem_ctrl.dram.bytesPerActivate::total     76636859                       # Bytes accessed per row activation (Byte)
system.mem_ctrl.dram.dramBytesRead        44302066752                       # Total bytes read (Byte)
system.mem_ctrl.dram.dramBytesWritten       400582336                       # Total bytes written (Byte)
system.mem_ctrl.dram.avgRdBW              1345.073432                       # Average DRAM read bandwidth in MiBytes/s ((Byte/Second))
system.mem_ctrl.dram.avgWrBW                12.162247                       # Average DRAM write bandwidth in MiBytes/s ((Byte/Second))
system.mem_ctrl.dram.peakBW                  19207.00                       # Theoretical peak bandwidth in MiByte/s ((Byte/Second))
system.mem_ctrl.dram.busUtil                     7.07                       # Data bus utilization in percentage (Ratio)
system.mem_ctrl.dram.busUtilRead                 7.00                       # Data bus utilization in percentage for reads (Ratio)
system.mem_ctrl.dram.busUtilWrite                0.06                       # Data bus utilization in percentage for writes (Ratio)
system.mem_ctrl.dram.pageHitRate                89.03                       # Row buffer hit rate, read and write combined (Ratio)
system.mem_ctrl.dram.power_state.pwrStateResidencyTicks::UNDEFINED 32936541387000                       # Cumulative time (in ticks) in various power states (Tick)
system.mem_ctrl.dram.rank0.actEnergy     82330886148.562622                       # Energy for activate commands per rank (pJ) (Joule)
system.mem_ctrl.dram.rank0.preEnergy     145345674271.946716                       # Energy for precharge commands per rank (pJ) (Joule)
system.mem_ctrl.dram.rank0.readEnergy    1564171930471.068604                       # Energy for read commands per rank (pJ) (Joule)
system.mem_ctrl.dram.rank0.writeEnergy   6529263089.680661                       # Energy for write commands per rank (pJ) (Joule)
system.mem_ctrl.dram.rank0.refreshEnergy 2859080517706.161133                       # Energy for refresh commands per rank (pJ) (Joule)
system.mem_ctrl.dram.rank0.actBackEnergy 15335980949562.318359                       # Energy for active background per rank (pJ) (Joule)
system.mem_ctrl.dram.rank0.preBackEnergy 163210920232.097931                       # Energy for precharge background per rank (pJ) (Joule)
system.mem_ctrl.dram.rank0.actPowerDownEnergy            0                       # Energy for active power-down per rank (pJ) (Joule)
system.mem_ctrl.dram.rank0.prePowerDownEnergy            0                       # Energy for precharge power-down per rank (pJ) (Joule)
system.mem_ctrl.dram.rank0.selfRefreshEnergy            0                       # Energy for self refresh per rank (pJ) (Joule)
system.mem_ctrl.dram.rank0.totalEnergy   20156650141481.699219                       # Total energy per rank (pJ) (Joule)
system.mem_ctrl.dram.rank0.averagePower    611.984419                       # Core power per rank (mW) (Watt)
system.mem_ctrl.dram.rank0.totalIdleTime            0                       # Total Idle time Per DRAM Rank (Tick)
system.mem_ctrl.dram.rank0.pwrStateTime::IDLE 272249966908                       # Time in different power states (Tick)
system.mem_ctrl.dram.rank0.pwrStateTime::REF 1480609550000                       # Time in different power states (Tick)
system.mem_ctrl.dram.rank0.pwrStateTime::SREF            0                       # Time in different power states (Tick)
system.mem_ctrl.dram.rank0.pwrStateTime::PRE_PDN            0                       # Time in different power states (Tick)
system.mem_ctrl.dram.rank0.pwrStateTime::ACT 31183681870092                       # Time in different power states (Tick)
system.mem_ctrl.dram.rank0.pwrStateTime::ACT_PDN            0                       # Time in different power states (Tick)
system.mem_ctrl.dram.rank1.actEnergy     37174797170.903740                       # Energy for activate commands per rank (pJ) (Joule)
system.mem_ctrl.dram.rank1.preEnergy     65627812251.886902                       # Energy for precharge commands per rank (pJ) (Joule)
system.mem_ctrl.dram.rank1.readEnergy    334519401080.475037                       # Energy for read commands per rank (pJ) (Joule)
system.mem_ctrl.dram.rank1.writeEnergy   8236301960.897221                       # Energy for write commands per rank (pJ) (Joule)
system.mem_ctrl.dram.rank1.refreshEnergy 2859080517706.161133                       # Energy for refresh commands per rank (pJ) (Joule)
system.mem_ctrl.dram.rank1.actBackEnergy 15077672000211.695312                       # Energy for active background per rank (pJ) (Joule)
system.mem_ctrl.dram.rank1.preBackEnergy 341535880202.422424                       # Energy for precharge background per rank (pJ) (Joule)
system.mem_ctrl.dram.rank1.actPowerDownEnergy            0                       # Energy for active power-down per rank (pJ) (Joule)
system.mem_ctrl.dram.rank1.prePowerDownEnergy            0                       # Energy for precharge power-down per rank (pJ) (Joule)
system.mem_ctrl.dram.rank1.selfRefreshEnergy            0                       # Energy for self refresh per rank (pJ) (Joule)
system.mem_ctrl.dram.rank1.totalEnergy   18723846710562.160156                       # Total energy per rank (pJ) (Joule)
system.mem_ctrl.dram.rank1.averagePower    568.482479                       # Core power per rank (mW) (Watt)
system.mem_ctrl.dram.rank1.totalIdleTime            0                       # Total Idle time Per DRAM Rank (Tick)
system.mem_ctrl.dram.rank1.pwrStateTime::IDLE 913193087610                       # Time in different power states (Tick)
system.mem_ctrl.dram.rank1.pwrStateTime::REF 1480609550000                       # Time in different power states (Tick)
system.mem_ctrl.dram.rank1.pwrStateTime::SREF            0                       # Time in different power states (Tick)
system.mem_ctrl.dram.rank1.pwrStateTime::PRE_PDN            0                       # Time in different power states (Tick)
system.mem_ctrl.dram.rank1.pwrStateTime::ACT 30542738749390                       # Time in different power states (Tick)
system.mem_ctrl.dram.rank1.pwrStateTime::ACT_PDN            0                       # Time in different power states (Tick)
system.mem_ctrl.power_state.pwrStateResidencyTicks::UNDEFINED 32936541387000                       # Cumulative time (in ticks) in various power states (Tick)
system.membus.transDist::ReadReq            716366753                       # Transaction distribution (Count)
system.membus.transDist::ReadResp           716366756                       # Transaction distribution (Count)
system.membus.transDist::WriteReq            35784995                       # Transaction distribution (Count)
system.membus.transDist::WriteResp           35784995                       # Transaction distribution (Count)
system.membus.transDist::SoftPFReq                 29                       # Transaction distribution (Count)
system.membus.transDist::SoftPFResp                29                       # Transaction distribution (Count)
system.membus.transDist::LoadLockedReq              4                       # Transaction distribution (Count)
system.membus.transDist::StoreCondReq               4                       # Transaction distribution (Count)
system.membus.transDist::StoreCondResp              4                       # Transaction distribution (Count)
system.membus.pktCount_system.cpu.icache_port::system.mem_ctrl.port   1101447307                       # Packet count per connected requestor and responder (Count)
system.membus.pktCount_system.cpu.dcache_port::system.mem_ctrl.port    402856262                       # Packet count per connected requestor and responder (Count)
system.membus.pktCount::total              1504303569                       # Packet count per connected requestor and responder (Count)
system.membus.pktSize_system.cpu.icache_port::system.mem_ctrl.port   2202894612                       # Cumulative packet size per connected requestor and responder (Byte)
system.membus.pktSize_system.cpu.dcache_port::system.mem_ctrl.port    805713644                       # Cumulative packet size per connected requestor and responder (Byte)
system.membus.pktSize::total               3008608256                       # Cumulative packet size per connected requestor and responder (Byte)
system.membus.snoops                                0                       # Total snoops (Count)
system.membus.snoopTraffic                          0                       # Total snoop traffic (Byte)
system.membus.snoopFanout::samples          752151785                       # Request fanout histogram (Count)
system.membus.snoopFanout::mean                     0                       # Request fanout histogram (Count)
system.membus.snoopFanout::stdev                    0                       # Request fanout histogram (Count)
system.membus.snoopFanout::underflows               0      0.00%      0.00% # Request fanout histogram (Count)
system.membus.snoopFanout::0                752151785    100.00%    100.00% # Request fanout histogram (Count)
system.membus.snoopFanout::1                        0      0.00%    100.00% # Request fanout histogram (Count)
system.membus.snoopFanout::overflows                0      0.00%    100.00% # Request fanout histogram (Count)
system.membus.snoopFanout::min_value                0                       # Request fanout histogram (Count)
system.membus.snoopFanout::max_value                0                       # Request fanout histogram (Count)
system.membus.snoopFanout::total            752151785                       # Request fanout histogram (Count)
system.membus.power_state.pwrStateResidencyTicks::UNDEFINED 32936541387000                       # Cumulative time (in ticks) in various power states (Tick)
system.membus.reqLayer0.occupancy        393968392000                       # Layer occupancy (ticks) (Tick)
system.membus.reqLayer0.utilization               0.0                       # Layer utilization (Ratio)
system.membus.respLayer0.occupancy       567328914120                       # Layer occupancy (ticks) (Tick)
system.membus.respLayer0.utilization              0.0                       # Layer utilization (Ratio)
system.membus.respLayer1.occupancy       195236629428                       # Layer occupancy (ticks) (Tick)
system.membus.respLayer1.utilization              0.0                       # Layer utilization (Ratio)
system.membus.snoop_filter.totRequests              0                       # Total number of requests made to the snoop filter. (Count)
system.membus.snoop_filter.hitSingleRequests            0                       # Number of requests hitting in the snoop filter with a single holder of the requested data. (Count)
system.membus.snoop_filter.hitMultiRequests            0                       # Number of requests hitting in the snoop filter with multiple (>1) holders of the requested data. (Count)
system.membus.snoop_filter.totSnoops                0                       # Total number of snoops made to the snoop filter. (Count)
system.membus.snoop_filter.hitSingleSnoops            0                       # Number of snoops hitting in the snoop filter with a single holder of the requested data. (Count)
system.membus.snoop_filter.hitMultiSnoops            0                       # Number of snoops hitting in the snoop filter with multiple (>1) holders of the requested data. (Count)
system.workload.inst.arm                            0                       # number of arm instructions executed (Count)
system.workload.inst.quiesce                        0                       # number of quiesce instructions executed (Count)

---------- End Simulation Statistics   ----------
